


 39 43  0  0  0  0  0  0  0  0999 V2000
    4.3936    4.6339   21.1880 C   0  0  0  0  0  0  0  0  0  0  0  0
    3.9837    3.3889   20.3194 C   0  0  0  0  0  0  0  0  0  0  0  0
    4.6364    3.3831   18.9703 N   0  0  0  0  0  0  0  0  0  0  0  0
    4.3625    6.0201   19.0003 C   0  0  0  0  0  0  0  0  0  0  0  0
    4.2847    7.0483   18.3275 O   0  0  0  0  0  0  0  0  0  0  0  0
    4.5707    4.6755   18.2161 C   0  0  0  0  0  0  0  0  0  0  0  0
    4.2603    5.9715   20.4444 N   0  0  0  0  0  0  0  0  0  0  0  0
    4.5791    1.9289   18.0388 S   0  0  0  0  0  0  0  0  0  0  0  0
    4.0735    2.3049   16.6265 O   0  0  0  0  0  0  0  0  0  0  0  0
    3.5450    0.9901   18.6857 O   0  0  0  0  0  0  0  0  0  0  0  0
    6.4171    0.0822   17.0120 C   0  0  0  0  0  0  0  0  0  0  0  0
    6.1541    1.1501   17.9664 C   0  0  0  0  0  0  0  0  0  0  0  0
    8.8313   -0.1449   17.8899 C   0  0  0  0  0  0  0  0  0  0  0  0
    8.5441    0.9421   18.8479 C   0  0  0  0  0  0  0  0  0  0  0  0
    7.2486    1.5612   18.8786 C   0  0  0  0  0  0  0  0  0  0  0  0
    7.7161   -0.5872   16.9346 C   0  0  0  0  0  0  0  0  0  0  0  0
   11.9444   -2.7024   16.7918 Cl  0  0  0  0  0  0  0  0  0  0  0  0
    7.9998   -1.6732   15.9789 C   0  0  0  0  0  0  0  0  0  0  0  0
   10.1325   -0.8245   17.8131 C   0  0  0  0  0  0  0  0  0  0  0  0
    9.2877   -2.3013   15.9495 C   0  0  0  0  0  0  0  0  0  0  0  0
   10.3736   -1.8928   16.8604 C   0  0  0  0  0  0  0  0  0  0  0  0
    3.8744    4.4850   22.6349 C   0  0  0  0  0  0  0  0  0  0  0  0
    4.6146    4.4277   23.6020 O   0  0  0  0  0  0  0  0  0  0  0  0
    2.4983    4.3928   22.7013 O   0  0  0  0  0  0  0  0  0  0  0  0
    1.8197    4.5808   24.0025 C   0  0  0  0  0  0  0  0  0  0  0  0
    1.7653    6.0776   24.3615 C   0  0  0  0  0  0  0  0  0  0  0  0
    4.0452    7.2538   21.2219 C   0  0  0  0  0  0  0  0  0  0  0  0
    7.6367    7.3762   23.8463 N   0  0  0  0  0  0  0  0  0  0  0  0
    7.7114    6.8693   22.4134 C   0  0  0  0  0  0  0  0  0  0  0  0
    6.2491    7.3071   24.4616 C   0  0  0  0  0  0  0  0  0  0  0  0
    5.2441    7.8794   22.0176 C   0  0  0  0  0  0  0  0  0  0  0  0
    6.6700    7.4889   21.4241 C   0  0  0  0  0  0  0  0  0  0  0  0
    5.1032    7.9600   23.6111 C   0  0  0  0  0  0  0  0  0  0  0  0
   10.8257    9.4607   24.7703 C   0  0  0  0  0  0  0  0  0  0  0  0
    8.8391    7.9178   24.5884 C   0  0  0  0  0  0  0  0  0  0  0  0
    9.6954    8.9874   24.0213 C   0  0  0  0  0  0  0  0  0  0  0  0
    9.2370    7.4040   25.9272 C   0  0  0  0  0  0  0  0  0  0  0  0
   11.1673    8.9573   26.0168 N   0  0  0  0  0  0  0  0  0  0  0  0
   10.3942    7.9567   26.5811 C   0  0  0  0  0  0  0  0  0  0  0  0
 39 38  1  0  0  0
 39 37  2  0  0  0
 38 34  2  0  0  0
 37 35  1  0  0  0
 34 36  1  0  0  0
 35 36  2  0  0  0
 35 28  1  0  0  0
 32 29  1  0  0  0
 32 31  2  0  0  0
 29 28  1  0  0  0
 28 30  1  0  0  0
 31 33  1  0  0  0
 31 27  1  0  0  0
  5  4  2  0  0  0
 33 30  2  0  0  0
 27  7  1  0  0  0
  4  7  1  0  0  0
  4  6  1  0  0  0
  7  1  1  0  0  0
  6  3  1  0  0  0
  1 22  1  0  0  0
  1  2  1  0  0  0
 23 22  2  0  0  0
  3  2  1  0  0  0
  3  8  1  0  0  0
 22 24  1  0  0  0
 15 14  2  0  0  0
 15 12  1  0  0  0
 10  8  2  0  0  0
 14 13  1  0  0  0
 25 24  1  0  0  0
 25 26  1  0  0  0
  8 12  1  0  0  0
  8  9  2  0  0  0
 12 11  2  0  0  0
 13 19  2  0  0  0
 13 16  1  0  0  0
 19 21  1  0  0  0
 11 16  1  0  0  0
 16 18  2  0  0  0
 21 17  1  0  0  0
 21 20  2  0  0  0
 18 20  1  0  0  0
M  END
> <minimizedAffinity>
-10.12796

$$$$



 39 43  0  0  0  0  0  0  0  0999 V2000
    5.0435    5.4539   20.3154 C   0  0  0  0  0  0  0  0  0  0  0  0
    5.0698    6.8980   20.9371 C   0  0  0  0  0  0  0  0  0  0  0  0
    5.6919    6.9311   22.3001 N   0  0  0  0  0  0  0  0  0  0  0  0
    4.5633    4.5656   22.7005 C   0  0  0  0  0  0  0  0  0  0  0  0
    4.1527    3.7555   23.5318 O   0  0  0  0  0  0  0  0  0  0  0  0
    5.2058    5.8863   23.2568 C   0  0  0  0  0  0  0  0  0  0  0  0
    4.4786    4.3871   21.2655 N   0  0  0  0  0  0  0  0  0  0  0  0
    6.1203    8.4660   22.9681 S   0  0  0  0  0  0  0  0  0  0  0  0
    5.0060    8.8633   23.9640 O   0  0  0  0  0  0  0  0  0  0  0  0
    6.1325    9.4958   21.8241 O   0  0  0  0  0  0  0  0  0  0  0  0
    7.9030    7.5836   24.9394 C   0  0  0  0  0  0  0  0  0  0  0  0
    7.6905    8.4073   23.7574 C   0  0  0  0  0  0  0  0  0  0  0  0
   10.3623    8.3497   25.0648 C   0  0  0  0  0  0  0  0  0  0  0  0
   10.1258    9.1759   23.8633 C   0  0  0  0  0  0  0  0  0  0  0  0
    8.8327    9.1984   23.2390 C   0  0  0  0  0  0  0  0  0  0  0  0
    9.1972    7.5211   25.6196 C   0  0  0  0  0  0  0  0  0  0  0  0
   13.4157    7.4174   27.7565 Cl  0  0  0  0  0  0  0  0  0  0  0  0
    9.4302    6.6974   26.8198 C   0  0  0  0  0  0  0  0  0  0  0  0
   11.6587    8.2889   25.7551 C   0  0  0  0  0  0  0  0  0  0  0  0
   10.7159    6.6778   27.4528 C   0  0  0  0  0  0  0  0  0  0  0  0
   11.8494    7.4684   26.9370 C   0  0  0  0  0  0  0  0  0  0  0  0
    4.5982    5.5037   18.8373 C   0  0  0  0  0  0  0  0  0  0  0  0
    5.3377    5.2141   17.9123 O   0  0  0  0  0  0  0  0  0  0  0  0
    3.2965    5.9391   18.6865 O   0  0  0  0  0  0  0  0  0  0  0  0
    2.5224    5.5166   17.4986 C   0  0  0  0  0  0  0  0  0  0  0  0
    1.6451    4.2983   17.8424 C   0  0  0  0  0  0  0  0  0  0  0  0
    3.8503    3.1279   20.7048 C   0  0  0  0  0  0  0  0  0  0  0  0
    7.2600    1.3548   18.4618 N   0  0  0  0  0  0  0  0  0  0  0  0
    7.4539    2.0154   19.8189 C   0  0  0  0  0  0  0  0  0  0  0  0
    6.0170    1.8115   17.7168 C   0  0  0  0  0  0  0  0  0  0  0  0
    4.7745    2.0079   20.1102 C   0  0  0  0  0  0  0  0  0  0  0  0
    6.2197    1.9592   20.7784 C   0  0  0  0  0  0  0  0  0  0  0  0
    4.6791    1.7399   18.5339 C   0  0  0  0  0  0  0  0  0  0  0  0
    8.7570   -1.6064   16.3740 C   0  0  0  0  0  0  0  0  0  0  0  0
    8.2155    0.3195   17.9096 C   0  0  0  0  0  0  0  0  0  0  0  0
    7.8077   -0.6437   16.8585 C   0  0  0  0  0  0  0  0  0  0  0  0
    9.6177    0.2022   18.3940 C   0  0  0  0  0  0  0  0  0  0  0  0
   10.0574   -1.6870   16.8498 N   0  0  0  0  0  0  0  0  0  0  0  0
   10.4775   -0.8066   17.8325 C   0  0  0  0  0  0  0  0  0  0  0  0
 39 38  1  0  0  0
 39 37  2  0  0  0
 38 34  2  0  0  0
 37 35  1  0  0  0
 34 36  1  0  0  0
 35 36  2  0  0  0
 35 28  1  0  0  0
 32 29  1  0  0  0
 32 31  2  0  0  0
 29 28  1  0  0  0
 28 30  1  0  0  0
 31 33  1  0  0  0
 31 27  1  0  0  0
  5  4  2  0  0  0
 33 30  2  0  0  0
 27  7  1  0  0  0
  4  7  1  0  0  0
  4  6  1  0  0  0
  7  1  1  0  0  0
  6  3  1  0  0  0
  1 22  1  0  0  0
  1  2  1  0  0  0
 23 22  2  0  0  0
  3  2  1  0  0  0
  3  8  1  0  0  0
 22 24  1  0  0  0
 15 14  2  0  0  0
 15 12  1  0  0  0
 10  8  2  0  0  0
 14 13  1  0  0  0
 25 24  1  0  0  0
 25 26  1  0  0  0
  8 12  1  0  0  0
  8  9  2  0  0  0
 12 11  2  0  0  0
 13 19  2  0  0  0
 13 16  1  0  0  0
 19 21  1  0  0  0
 11 16  1  0  0  0
 16 18  2  0  0  0
 21 17  1  0  0  0
 21 20  2  0  0  0
 18 20  1  0  0  0
M  END
> <minimizedAffinity>
-10.02647

$$$$



 39 43  0  0  0  0  0  0  0  0999 V2000
    3.7936    5.3503   21.9660 C   0  0  0  0  0  0  0  0  0  0  0  0
    4.4912    5.9735   23.2300 C   0  0  0  0  0  0  0  0  0  0  0  0
    4.9335    7.3883   23.0095 N   0  0  0  0  0  0  0  0  0  0  0  0
    5.5044    6.6569   20.5258 C   0  0  0  0  0  0  0  0  0  0  0  0
    6.1696    6.8932   19.5170 O   0  0  0  0  0  0  0  0  0  0  0  0
    5.6846    7.6388   21.7381 C   0  0  0  0  0  0  0  0  0  0  0  0
    4.5929    5.5402   20.6680 N   0  0  0  0  0  0  0  0  0  0  0  0
    5.3884    8.3284   24.3861 S   0  0  0  0  0  0  0  0  0  0  0  0
    4.6643    7.7289   25.6141 O   0  0  0  0  0  0  0  0  0  0  0  0
    4.8704    9.7624   24.1750 O   0  0  0  0  0  0  0  0  0  0  0  0
    7.7438    7.6169   25.7236 C   0  0  0  0  0  0  0  0  0  0  0  0
    7.1321    8.3331   24.6129 C   0  0  0  0  0  0  0  0  0  0  0  0
   10.0863    8.3802   24.9616 C   0  0  0  0  0  0  0  0  0  0  0  0
    9.4455    9.0973   23.8404 C   0  0  0  0  0  0  0  0  0  0  0  0
    8.0186    9.0699   23.6800 C   0  0  0  0  0  0  0  0  0  0  0  0
    9.1911    7.6094   25.9395 C   0  0  0  0  0  0  0  0  0  0  0  0
   13.8798    7.6774   26.5593 Cl  0  0  0  0  0  0  0  0  0  0  0  0
    9.8282    6.8945   27.0604 C   0  0  0  0  0  0  0  0  0  0  0  0
   11.5390    8.3753   25.1861 C   0  0  0  0  0  0  0  0  0  0  0  0
   11.2508    6.9256   27.2312 C   0  0  0  0  0  0  0  0  0  0  0  0
   12.1300    7.6622   26.3037 C   0  0  0  0  0  0  0  0  0  0  0  0
    3.1656    3.9814   22.3082 C   0  0  0  0  0  0  0  0  0  0  0  0
    1.9612    3.7955   22.3457 O   0  0  0  0  0  0  0  0  0  0  0  0
    4.1114    3.0169   22.5941 O   0  0  0  0  0  0  0  0  0  0  0  0
    3.6836    1.6131   22.7817 C   0  0  0  0  0  0  0  0  0  0  0  0
    3.7042    0.8673   21.4343 C   0  0  0  0  0  0  0  0  0  0  0  0
    4.4128    4.5713   19.5174 C   0  0  0  0  0  0  0  0  0  0  0  0
    7.0309    1.0725   18.6779 N   0  0  0  0  0  0  0  0  0  0  0  0
    5.7453    1.3130   17.9000 C   0  0  0  0  0  0  0  0  0  0  0  0
    7.0685    1.7383   20.0432 C   0  0  0  0  0  0  0  0  0  0  0  0
    5.6564    3.7824   18.9763 C   0  0  0  0  0  0  0  0  0  0  0  0
    5.3099    2.8092   17.7636 C   0  0  0  0  0  0  0  0  0  0  0  0
    6.7242    3.2692   20.0544 C   0  0  0  0  0  0  0  0  0  0  0  0
   10.6029   -0.4450   18.1243 C   0  0  0  0  0  0  0  0  0  0  0  0
    8.1797    0.2536   18.1306 C   0  0  0  0  0  0  0  0  0  0  0  0
    9.5509    0.3553   18.6859 C   0  0  0  0  0  0  0  0  0  0  0  0
    8.0026   -0.6960   16.9986 C   0  0  0  0  0  0  0  0  0  0  0  0
   10.4011   -1.3202   17.0674 N   0  0  0  0  0  0  0  0  0  0  0  0
    9.1355   -1.4437   16.5193 C   0  0  0  0  0  0  0  0  0  0  0  0
 39 38  1  0  0  0
 39 37  2  0  0  0
 38 34  2  0  0  0
 37 35  1  0  0  0
 34 36  1  0  0  0
 35 36  2  0  0  0
 35 28  1  0  0  0
 32 29  1  0  0  0
 32 31  2  0  0  0
 29 28  1  0  0  0
 28 30  1  0  0  0
 31 33  1  0  0  0
 31 27  1  0  0  0
  5  4  2  0  0  0
 33 30  2  0  0  0
 27  7  1  0  0  0
  4  7  1  0  0  0
  4  6  1  0  0  0
  7  1  1  0  0  0
  6  3  1  0  0  0
  1 22  1  0  0  0
  1  2  1  0  0  0
 23 22  2  0  0  0
  3  2  1  0  0  0
  3  8  1  0  0  0
 22 24  1  0  0  0
 15 14  2  0  0  0
 15 12  1  0  0  0
 10  8  2  0  0  0
 14 13  1  0  0  0
 25 24  1  0  0  0
 25 26  1  0  0  0
  8 12  1  0  0  0
  8  9  2  0  0  0
 12 11  2  0  0  0
 13 19  2  0  0  0
 13 16  1  0  0  0
 19 21  1  0  0  0
 11 16  1  0  0  0
 16 18  2  0  0  0
 21 17  1  0  0  0
 21 20  2  0  0  0
 18 20  1  0  0  0
M  END
> <minimizedAffinity>
-9.92382

$$$$
