
 OpenBabel07192215303D

 43 47  0  0  0  0  0  0  0  0999 V2000
    7.2399    3.6470   19.8753 N   0  0  0  0  0  0  0  0  0  0  0  0
    6.3382    2.6504   20.2725 C   0  0  0  0  0  0  0  0  0  0  0  0
    5.4492    2.8710   21.3583 N   0  0  0  0  0  0  0  0  0  0  0  0
    5.8518    4.1741   21.6787 C   0  0  0  0  0  0  0  0  0  0  0  0
    6.9270    4.6280   20.7773 C   0  0  0  0  0  0  0  0  0  0  0  0
    5.3623    5.0688   22.7320 C   0  0  0  0  0  0  0  0  0  0  0  0
    5.9366    6.3627   22.8708 C   0  0  0  0  0  0  0  0  0  0  0  0
    7.0168    6.8598   21.9962 C   0  0  0  0  0  0  0  0  0  0  0  0
    7.5072    5.9634   20.9265 C   0  0  0  0  0  0  0  0  0  0  0  0
    4.4012    1.9898   21.9916 C   0  0  0  0  0  0  0  0  0  0  0  0
    7.3984    9.5459   21.5970 C   0  0  0  0  0  0  0  0  0  0  0  0
    8.7041    8.8272   21.2856 C   0  0  0  0  0  0  0  0  0  0  0  0
    7.7563    8.2547   22.3526 C   0  0  0  0  0  0  0  0  0  0  0  0
    7.6322    8.5247   23.9259 C   0  0  0  0  0  0  0  0  0  0  0  0
    6.5074    8.9324   24.4738 N   0  0  0  0  0  0  0  0  0  0  0  0
    8.6403    7.3185   25.9991 N   0  0  0  0  0  0  0  0  0  0  0  0
    8.8328    8.2333   24.9001 C   0  0  0  0  0  0  0  0  0  0  0  0
   10.1431    8.8340   24.7249 C   0  0  0  0  0  0  0  0  0  0  0  0
   11.2031    8.5060   25.6488 C   0  0  0  0  0  0  0  0  0  0  0  0
   10.9956    7.5930   26.7478 C   0  0  0  0  0  0  0  0  0  0  0  0
    9.7064    6.9938   26.9241 C   0  0  0  0  0  0  0  0  0  0  0  0
    5.2653    9.2038   23.6945 O   0  0  0  0  0  0  0  0  0  0  0  0
    4.1358    8.6040   24.3501 C   0  0  0  0  0  0  0  0  0  0  0  0
    3.3596    9.6751   25.1485 C   0  0  0  0  0  0  0  0  0  0  0  0
    3.8300   10.0695   26.2306 O   0  0  0  0  0  0  0  0  0  0  0  0
    2.1582   10.1623   24.6331 O   0  0  0  0  0  0  0  0  0  0  0  0
    0.4966    8.8449   25.8412 C   0  0  0  0  0  0  0  0  0  0  0  0
    1.1322    9.1551   24.4728 C   0  0  0  0  0  0  0  0  0  0  0  0
    6.3760    1.3080   19.4924 C   0  0  0  0  0  0  0  0  0  0  0  0
    7.2996    1.2953   18.3044 N   0  0  0  0  0  0  0  0  0  0  0  0
    7.2058    2.0608   17.6926 H   0  0  0  0  0  0  0  0  0  0  0  0
   10.3166   -1.6804   17.0822 C   0  0  0  0  0  0  0  0  0  0  0  0
   10.5968   -0.7078   18.1480 C   0  0  0  0  0  0  0  0  0  0  0  0
    9.6302    0.2618   18.5590 C   0  0  0  0  0  0  0  0  0  0  0  0
    8.3161    0.3147   17.9233 C   0  0  0  0  0  0  0  0  0  0  0  0
    7.9941   -0.6265   16.8723 C   0  0  0  0  0  0  0  0  0  0  0  0
    8.9728   -1.6070   16.4544 C   0  0  0  0  0  0  0  0  0  0  0  0
   11.0240   -3.8269   16.2088 N   0  0  0  0  0  0  0  0  0  0  0  0
   12.6032   -2.4640   16.8247 N   0  0  0  0  0  0  0  0  0  0  0  0
   11.2964   -2.6181   16.6852 C   0  0  0  0  0  0  0  0  0  0  0  0
   10.0900   -4.0942   16.0493 H   0  0  0  0  0  0  0  0  0  0  0  0
   11.7560   -4.4561   16.0149 H   0  0  0  0  0  0  0  0  0  0  0  0
   12.9648   -1.6157   17.1696 H   0  0  0  0  0  0  0  0  0  0  0  0
  2  1  2  0  0  0  0
  2 29  1  0  0  0  0
  3  2  1  0  0  0  0
  4  3  1  0  0  0  0
  4  5  1  0  0  0  0
  5  9  2  0  0  0  0
  5  1  1  0  0  0  0
  6  7  1  0  0  0  0
  6  4  2  0  0  0  0
  7  8  2  0  0  0  0
  8 13  1  0  0  0  0
  8  9  1  0  0  0  0
 10  3  1  0  0  0  0
 11 12  1  0  0  0  0
 13 11  1  0  0  0  0
 13 12  1  0  0  0  0
 14 13  1  0  0  0  0
 15 22  1  0  0  0  0
 15 14  2  0  0  0  0
 16 17  1  0  0  0  0
 17 14  1  0  0  0  0
 17 18  2  0  0  0  0
 19 18  1  0  0  0  0
 20 19  2  0  0  0  0
 21 16  2  0  0  0  0
 21 20  1  0  0  0  0
 23 22  1  0  0  0  0
 24 23  1  0  0  0  0
 24 26  1  0  0  0  0
 25 24  2  0  0  0  0
 28 26  1  0  0  0  0
 28 27  1  0  0  0  0
 29 30  1  0  0  0  0
 30 35  1  0  0  0  0
 30 31  1  0  0  0  0
 32 40  1  0  0  0  0
 33 32  1  0  0  0  0
 34 33  2  0  0  0  0
 35 36  2  0  0  0  0
 35 34  1  0  0  0  0
 36 37  1  0  0  0  0
 37 32  2  0  0  0  0
 38 41  1  0  0  0  0
 38 42  1  0  0  0  0
 39 43  1  0  0  0  0
 40 39  2  0  0  0  0
 40 38  1  0  0  0  0
M  END
>  <minimizedAffinity>
-11.50449

$$$$
