
 OpenBabel07192215303D

 40 43  0  0  0  0  0  0  0  0999 V2000
    6.2787    2.1396   20.6201 C   0  0  1  0  0  0  0  0  0  0  0  0
    5.3751    4.2712   21.6840 C   0  0  0  0  0  0  0  0  0  0  0  0
    5.5065    5.6213   21.9808 C   0  0  0  0  0  0  0  0  0  0  0  0
    7.6181    4.2469   20.7580 C   0  0  0  0  0  0  0  0  0  0  0  0
    7.7501    5.5961   21.0587 C   0  0  0  0  0  0  0  0  0  0  0  0
    6.6918    6.2772   21.6666 C   0  0  0  0  0  0  0  0  0  0  0  0
    6.4290    3.5928   21.0619 C   0  0  0  0  0  0  0  0  0  0  0  0
    6.8020    7.6853   21.9687 O   0  0  0  0  0  0  0  0  0  0  0  0
    9.2131    8.4387   24.4588 N   0  0  0  0  0  0  0  0  0  0  0  0
    8.7470    8.5720   23.0842 C   0  0  0  0  0  0  0  0  0  0  0  0
    7.2800    8.2221   23.1562 C   0  0  2  0  0  0  0  0  0  0  0  0
    7.2638    7.3273   24.3359 C   0  0  0  0  0  0  0  0  0  0  0  0
    8.3081    7.7086   25.3548 C   0  0  0  0  0  0  0  0  0  0  0  0
   10.3750    8.9593   24.8405 C   0  0  1  0  0  0  0  0  0  0  0  0
   10.7443   10.1384   24.3727 N   0  0  0  0  0  0  0  0  0  0  0  0
   11.3079    8.3100   25.8638 C   0  0  0  0  0  0  0  0  0  0  0  0
   10.4434   10.4394   23.4937 H   0  0  0  0  0  0  0  0  0  0  0  0
   11.3387   10.6685   24.9433 H   0  0  0  0  0  0  0  0  0  0  0  0
    5.0236    1.3496   20.9935 C   0  0  0  0  0  0  0  0  0  0  0  0
    4.7297    1.1805   22.1803 O   0  0  0  0  0  0  0  0  0  0  0  0
    4.3211    0.9464   20.0634 O   0  0  0  0  0  0  0  0  0  0  0  0
    5.2947    1.5048   22.8538 H   0  0  0  0  0  0  0  0  0  0  0  0
    6.4133    2.0689   19.1040 C   0  0  0  0  0  0  0  0  0  0  0  0
    7.1643    0.3058   17.5333 C   0  0  0  0  0  0  0  0  0  0  0  0
    7.5121    1.1821   18.5426 C   0  0  0  0  0  0  0  0  0  0  0  0
    8.8428    1.1934   19.0051 C   0  0  0  0  0  0  0  0  0  0  0  0
    9.7629    0.2535   18.5265 C   0  0  0  0  0  0  0  0  0  0  0  0
    9.3636   -0.6623   17.5477 C   0  0  0  0  0  0  0  0  0  0  0  0
   10.2604   -1.6024   17.0391 C   0  0  0  0  0  0  0  0  0  0  0  0
    9.8415   -2.4885   16.0424 C   0  0  0  0  0  0  0  0  0  0  0  0
    8.5465   -2.4137   15.5009 C   0  0  0  0  0  0  0  0  0  0  0  0
    7.6714   -1.5153   16.0866 C   0  0  0  0  0  0  0  0  0  0  0  0
    8.0576   -0.6159   17.0440 C   0  0  0  0  0  0  0  0  0  0  0  0
    8.1340   -3.1690   14.4124 C   0  0  0  0  0  0  0  0  0  0  0  0
    7.5906   -4.3699   14.6229 N   0  0  0  0  0  0  0  0  0  0  0  0
    8.2748   -2.6830   13.1718 N   0  0  0  0  0  0  0  0  0  0  0  0
    7.2629   -4.9813   13.9160 H   0  0  0  0  0  0  0  0  0  0  0  0
    8.6743   -1.7712   13.0669 H   0  0  0  0  0  0  0  0  0  0  0  0
    7.9996   -3.1775   12.3512 H   0  0  0  0  0  0  0  0  0  0  0  0
    7.5729   -4.7166   15.5730 H   0  0  0  0  0  0  0  0  0  0  0  0
  1 23  1  6  0  0  0
  3  2  1  0  0  0  0
  4  7  1  0  0  0  0
  5  4  2  0  0  0  0
  5  6  1  0  0  0  0
  6  3  2  0  0  0  0
  7  1  1  0  0  0  0
  7  2  2  0  0  0  0
  8  6  1  0  0  0  0
  9 13  1  0  0  0  0
  9 10  1  0  0  0  0
 10 11  1  0  0  0  0
 11  8  1  6  0  0  0
 12 11  1  0  0  0  0
 13 12  1  0  0  0  0
 14 16  1  1  0  0  0
 14  9  1  0  0  0  0
 15 14  1  0  0  0  0
 17 15  1  0  0  0  0
 18 15  1  0  0  0  0
 19  1  1  0  0  0  0
 19 20  1  0  0  0  0
 20 22  1  0  0  0  0
 21 19  2  0  0  0  0
 23 25  1  0  0  0  0
 24 33  1  0  0  0  0
 25 24  2  0  0  0  0
 26 27  2  0  0  0  0
 26 25  1  0  0  0  0
 27 28  1  0  0  0  0
 28 29  2  0  0  0  0
 28 33  1  0  0  0  0
 29 30  1  0  0  0  0
 30 31  2  0  0  0  0
 31 34  1  0  0  0  0
 32 31  1  0  0  0  0
 33 32  2  0  0  0  0
 34 36  2  0  0  0  0
 34 35  1  0  0  0  0
 35 37  1  0  0  0  0
 36 39  1  0  0  0  0
 38 36  1  0  0  0  0
 40 35  1  0  0  0  0
M  END
>  <minimizedAffinity>
-11.84343

$$$$
