
 OpenBabel07192215303D

 38 43  0  0  0  0  0  0  0  0999 V2000
    4.8130    4.7433   22.7954 C   0  0  0  0  0  0  0  0  0  0  0  0
    4.5648    3.7959   23.5373 O   0  0  0  0  0  0  0  0  0  0  0  0
    5.2404    6.1120   23.4365 C   0  0  0  0  0  0  0  0  0  0  0  0
    5.5244    7.2461   22.5160 N   0  0  0  0  0  0  0  0  0  0  0  0
    5.0684    5.8576   20.4492 C   0  0  2  0  0  0  0  0  0  0  0  0
    6.0440    6.8781   21.1825 C   0  0  0  0  0  0  0  0  0  0  0  0
    4.7537    4.6976   21.3577 N   0  0  0  0  0  0  0  0  0  0  0  0
    4.8888    3.4637   20.5584 C   0  0  0  0  0  0  0  0  0  0  0  0
    7.3351    1.2729   18.6666 N   0  0  0  0  0  0  0  0  0  0  0  0
    7.7296    1.9874   19.9850 C   0  0  0  0  0  0  0  0  0  0  0  0
    5.9636    1.6421   18.0375 C   0  0  0  0  0  0  0  0  0  0  0  0
    5.9384    3.8596   19.4672 C   0  0  0  0  0  0  0  0  0  0  0  0
    5.7512    5.2997   19.3293 O   0  0  0  0  0  0  0  0  0  0  0  0
    7.4344    3.5164   19.8982 C   0  0  0  0  0  0  0  0  0  0  0  0
    5.7134    3.1897   18.0547 C   0  0  0  0  0  0  0  0  0  0  0  0
    8.6908   -1.5629   16.3635 C   0  0  0  0  0  0  0  0  0  0  0  0
    8.2439    0.2630   18.0289 C   0  0  0  0  0  0  0  0  0  0  0  0
    7.7830   -0.6160   16.9286 C   0  0  0  0  0  0  0  0  0  0  0  0
    9.6499    0.0883   18.4668 C   0  0  0  0  0  0  0  0  0  0  0  0
    9.9996   -1.7007   16.7974 N   0  0  0  0  0  0  0  0  0  0  0  0
   10.4688   -0.8968   17.8222 C   0  0  0  0  0  0  0  0  0  0  0  0
    6.0118    8.7968   22.9602 S   0  0  0  0  0  0  0  0  0  0  0  0
    4.9859    9.2923   24.0200 O   0  0  0  0  0  0  0  0  0  0  0  0
    6.0500    9.7225   21.7303 O   0  0  0  0  0  0  0  0  0  0  0  0
    7.7005    7.9091   24.9281 C   0  0  0  0  0  0  0  0  0  0  0  0
    7.5688    8.7079   23.7204 C   0  0  0  0  0  0  0  0  0  0  0  0
   10.2653    8.3679   24.9435 C   0  0  0  0  0  0  0  0  0  0  0  0
   10.1126    9.1747   23.7127 C   0  0  0  0  0  0  0  0  0  0  0  0
    8.8035    9.3404   23.1205 C   0  0  0  0  0  0  0  0  0  0  0  0
    8.9862    7.7059   25.5748 C   0  0  0  0  0  0  0  0  0  0  0  0
   13.1502    7.1229   27.6227 Cl  0  0  0  0  0  0  0  0  0  0  0  0
    9.1193    6.9017   26.8079 C   0  0  0  0  0  0  0  0  0  0  0  0
   11.5397    8.1585   25.6083 C   0  0  0  0  0  0  0  0  0  0  0  0
   10.4080    6.7415   27.4081 C   0  0  0  0  0  0  0  0  0  0  0  0
   11.6163    7.3583   26.8248 C   0  0  0  0  0  0  0  0  0  0  0  0
    3.8446    6.7077   19.9108 C   0  0  0  0  0  0  0  0  0  0  0  0
    2.6757    6.7062   20.7763 O   0  0  0  0  0  0  0  0  0  0  0  0
    2.2612    7.9203   21.2507 C   0  0  0  0  0  0  0  0  0  0  0  0
  1  2  2  0  0  0  0
  1  3  1  0  0  0  0
  4  3  1  0  0  0  0
  4 22  1  0  0  0  0
  5 36  1  6  0  0  0
  5  7  1  0  0  0  0
  5  6  1  0  0  0  0
  6  4  1  0  0  0  0
  7  1  1  0  0  0  0
  8  7  1  0  0  0  0
  9 10  1  0  0  0  0
 10 14  1  0  0  0  0
 11 15  1  0  0  0  0
 11  9  1  0  0  0  0
 12 13  1  0  0  0  0
 12 14  1  0  0  0  0
 12  8  1  0  0  0  0
 13  5  1  0  0  0  0
 15 12  1  0  0  0  0
 16 18  2  0  0  0  0
 16 20  1  0  0  0  0
 17 19  2  0  0  0  0
 17  9  1  0  0  0  0
 18 17  1  0  0  0  0
 20 21  2  0  0  0  0
 21 19  1  0  0  0  0
 22 26  1  0  0  0  0
 22 23  2  0  0  0  0
 24 22  2  0  0  0  0
 25 30  1  0  0  0  0
 26 25  2  0  0  0  0
 27 33  2  0  0  0  0
 27 30  1  0  0  0  0
 28 27  1  0  0  0  0
 29 28  2  0  0  0  0
 29 26  1  0  0  0  0
 30 32  2  0  0  0  0
 32 34  1  0  0  0  0
 33 35  1  0  0  0  0
 35 31  1  0  0  0  0
 35 34  2  0  0  0  0
 37 36  1  0  0  0  0
 38 37  1  0  0  0  0
M  END
>  <minimizedAffinity>
-9.60436

$$$$
