
 OpenBabel07192215303D

 38 43  0  0  0  0  0  0  0  0999 V2000
    4.7698    5.6063   18.1063 C   0  0  0  0  0  0  0  0  0  0  0  0
    5.0453    6.6398   17.5018 O   0  0  0  0  0  0  0  0  0  0  0  0
    4.7742    4.2473   17.3186 C   0  0  0  0  0  0  0  0  0  0  0  0
    4.4260    3.0123   18.0720 N   0  0  0  0  0  0  0  0  0  0  0  0
    4.1201    4.2661   20.2496 C   0  0  2  0  0  0  0  0  0  0  0  0
    4.7695    3.0166   19.5093 C   0  0  0  0  0  0  0  0  0  0  0  0
    4.4476    5.5359   19.5077 N   0  0  0  0  0  0  0  0  0  0  0  0
    4.8714    6.5338   20.5099 C   0  0  0  0  0  0  0  0  0  0  0  0
    7.5299    7.3867   23.0726 N   0  0  0  0  0  0  0  0  0  0  0  0
    7.8828    6.7022   21.7268 C   0  0  0  0  0  0  0  0  0  0  0  0
    6.0241    7.5337   23.4253 C   0  0  0  0  0  0  0  0  0  0  0  0
    5.4585    5.6534   21.6627 C   0  0  0  0  0  0  0  0  0  0  0  0
    4.7246    4.3994   21.5334 O   0  0  0  0  0  0  0  0  0  0  0  0
    7.0280    5.4146   21.5173 C   0  0  0  0  0  0  0  0  0  0  0  0
    5.2238    6.2211   23.1178 C   0  0  0  0  0  0  0  0  0  0  0  0
   10.5963    9.3388   24.4762 C   0  0  0  0  0  0  0  0  0  0  0  0
    8.6035    7.8887   23.9934 C   0  0  0  0  0  0  0  0  0  0  0  0
    9.5931    8.9021   23.5581 C   0  0  0  0  0  0  0  0  0  0  0  0
    8.7338    7.3962   25.3860 C   0  0  0  0  0  0  0  0  0  0  0  0
   10.6903    8.8568   25.7720 N   0  0  0  0  0  0  0  0  0  0  0  0
    9.7834    7.9102   26.2172 C   0  0  0  0  0  0  0  0  0  0  0  0
    4.3780    1.4448   17.4553 S   0  0  0  0  0  0  0  0  0  0  0  0
    4.0170    1.5776   15.9475 O   0  0  0  0  0  0  0  0  0  0  0  0
    3.3403    0.5984   18.2154 O   0  0  0  0  0  0  0  0  0  0  0  0
    6.2961   -0.3446   16.6611 C   0  0  0  0  0  0  0  0  0  0  0  0
    5.9591    0.7399   17.5689 C   0  0  0  0  0  0  0  0  0  0  0  0
    8.7278   -0.3631   17.5967 C   0  0  0  0  0  0  0  0  0  0  0  0
    8.3676    0.7427   18.5113 C   0  0  0  0  0  0  0  0  0  0  0  0
    7.0235    1.2766   18.4982 C   0  0  0  0  0  0  0  0  0  0  0  0
    7.6270   -0.9279   16.6262 C   0  0  0  0  0  0  0  0  0  0  0  0
   11.9209   -2.7809   16.5922 Cl  0  0  0  0  0  0  0  0  0  0  0  0
    7.9675   -2.0368   15.7100 C   0  0  0  0  0  0  0  0  0  0  0  0
   10.0496   -0.9637   17.5513 C   0  0  0  0  0  0  0  0  0  0  0  0
    9.2911   -2.5798   15.7235 C   0  0  0  0  0  0  0  0  0  0  0  0
   10.3332   -2.0580   16.6305 C   0  0  0  0  0  0  0  0  0  0  0  0
    2.5869    3.9239   20.4563 C   0  0  0  0  0  0  0  0  0  0  0  0
    1.6903    4.5440   19.4936 O   0  0  0  0  0  0  0  0  0  0  0  0
    0.9248    3.7011   18.7357 C   0  0  0  0  0  0  0  0  0  0  0  0
  1  2  2  0  0  0  0
  1  3  1  0  0  0  0
  4  3  1  0  0  0  0
  4 22  1  0  0  0  0
  5 36  1  1  0  0  0
  5  7  1  0  0  0  0
  5  6  1  0  0  0  0
  6  4  1  0  0  0  0
  7  1  1  0  0  0  0
  8  7  1  0  0  0  0
  9 10  1  0  0  0  0
 10 14  1  0  0  0  0
 11 15  1  0  0  0  0
 11  9  1  0  0  0  0
 12 13  1  0  0  0  0
 12 14  1  0  0  0  0
 12  8  1  0  0  0  0
 13  5  1  0  0  0  0
 15 12  1  0  0  0  0
 16 18  2  0  0  0  0
 16 20  1  0  0  0  0
 17 19  2  0  0  0  0
 17  9  1  0  0  0  0
 18 17  1  0  0  0  0
 20 21  2  0  0  0  0
 21 19  1  0  0  0  0
 22 26  1  0  0  0  0
 22 23  2  0  0  0  0
 24 22  2  0  0  0  0
 25 30  1  0  0  0  0
 26 25  2  0  0  0  0
 27 33  2  0  0  0  0
 27 30  1  0  0  0  0
 28 27  1  0  0  0  0
 29 28  2  0  0  0  0
 29 26  1  0  0  0  0
 30 32  2  0  0  0  0
 32 34  1  0  0  0  0
 33 35  1  0  0  0  0
 35 31  1  0  0  0  0
 35 34  2  0  0  0  0
 37 36  1  0  0  0  0
 38 37  1  0  0  0  0
M  END
>  <minimizedAffinity>
-8.84648

$$$$
