
 OpenBabel07192215303D

 43 46  0  0  0  0  0  0  0  0999 V2000
    5.4779    8.1239   22.1491 C   0  0  2  0  0  0  0  0  0  0  0  0
    4.8212    9.1716   22.5705 F   0  0  0  0  0  0  0  0  0  0  0  0
    5.0953    7.4413   20.9708 C   0  0  0  0  0  0  0  0  0  0  0  0
    5.8639    6.3158   20.5677 C   0  0  0  0  0  0  0  0  0  0  0  0
    5.5737    5.6535   19.4996 F   0  0  0  0  0  0  0  0  0  0  0  0
    6.9630    5.9110   21.3356 C   0  0  0  0  0  0  0  0  0  0  0  0
    7.2687    6.5826   22.4325 N   0  0  0  0  0  0  0  0  0  0  0  0
    6.5895    7.6510   22.8790 C   0  0  0  0  0  0  0  0  0  0  0  0
    4.0153    7.8676   20.2392 N   0  0  0  0  0  0  0  0  0  0  0  0
    4.2218    8.7203   19.0886 C   0  0  0  0  0  0  0  0  0  0  0  0
    2.6608    7.4499   20.6148 C   0  0  0  0  0  0  0  0  0  0  0  0
    1.6871    8.5380   21.0045 C   0  0  0  0  0  0  0  0  0  0  0  0
    0.5245    8.6376   20.5014 O   0  0  0  0  0  0  0  0  0  0  0  0
    2.0446    9.4592   21.9514 O   0  0  0  0  0  0  0  0  0  0  0  0
    2.8933    9.4199   22.3464 H   0  0  0  0  0  0  0  0  0  0  0  0
    6.9901    8.2467   23.9951 O   0  0  0  0  0  0  0  0  0  0  0  0
    8.8566    9.8461   22.6898 O   0  0  0  0  0  0  0  0  0  0  0  0
    8.2508    8.3845   24.4056 C   0  0  0  0  0  0  0  0  0  0  0  0
    8.6282    7.6629   25.5400 C   0  0  0  0  0  0  0  0  0  0  0  0
    9.9440    7.7289   26.0568 C   0  0  0  0  0  0  0  0  0  0  0  0
   10.8890    8.5601   25.3808 C   0  0  0  0  0  0  0  0  0  0  0  0
   10.5141    9.2800   24.2344 C   0  0  0  0  0  0  0  0  0  0  0  0
    9.1899    9.1898   23.7411 C   0  0  0  0  0  0  0  0  0  0  0  0
    9.4886   10.3814   22.2517 H   0  0  0  0  0  0  0  0  0  0  0  0
   10.2747    6.9990   27.1940 C   0  0  0  0  0  0  0  0  0  0  0  0
    9.3653    6.7391   28.1578 N   0  0  0  0  0  0  0  0  0  0  0  0
   11.4784    6.4810   27.3951 N   0  0  0  0  0  0  0  0  0  0  0  0
    8.4492    7.0906   28.0778 H   0  0  0  0  0  0  0  0  0  0  0  0
    9.6183    6.1980   28.9404 H   0  0  0  0  0  0  0  0  0  0  0  0
   12.1941    6.6280   26.7352 H   0  0  0  0  0  0  0  0  0  0  0  0
    7.6700    4.8837   20.9422 O   0  0  0  0  0  0  0  0  0  0  0  0
    7.4079    3.5962   20.7455 C   0  0  0  0  0  0  0  0  0  0  0  0
    6.4171    3.0296   21.5937 C   0  0  0  0  0  0  0  0  0  0  0  0
    6.0726    1.6704   21.4708 C   0  0  0  0  0  0  0  0  0  0  0  0
    6.7232    0.8844   20.5066 C   0  0  0  0  0  0  0  0  0  0  0  0
    7.7146    1.4504   19.6534 C   0  0  0  0  0  0  0  0  0  0  0  0
    8.0422    2.7997   19.7907 C   0  0  0  0  0  0  0  0  0  0  0  0
    8.3500    0.6793   18.6836 C   0  0  0  0  0  0  0  0  0  0  0  0
    7.8563    0.1245   17.5633 N   0  0  0  0  0  0  0  0  0  0  0  0
    6.5267    0.1850   17.0694 C   0  0  0  0  0  0  0  0  0  0  0  0
    9.6567    0.3991   18.8019 N   0  0  0  0  0  0  0  0  0  0  0  0
    8.8741   -0.5781   16.8650 C   0  0  0  0  0  0  0  0  0  0  0  0
   10.1313   -0.3864   17.7382 C   0  0  0  0  0  0  0  0  0  0  0  0
  1  8  1  0  0  0  0
  1  2  1  1  0  0  0
  3  1  1  0  0  0  0
  4  3  2  0  0  0  0
  4  6  1  0  0  0  0
  5  4  1  0  0  0  0
  6  7  2  0  0  0  0
  7  8  2  0  0  0  0
  8 16  1  0  0  0  0
  9 11  1  0  0  0  0
  9  3  1  0  0  0  0
 10  9  1  0  0  0  0
 11 12  1  0  0  0  0
 12 13  2  0  0  0  0
 12 14  1  0  0  0  0
 14 15  1  0  0  0  0
 16 18  1  0  0  0  0
 17 23  1  0  0  0  0
 17 24  1  0  0  0  0
 18 19  1  0  0  0  0
 19 20  2  0  0  0  0
 20 25  1  0  0  0  0
 21 20  1  0  0  0  0
 22 21  2  0  0  0  0
 23 22  1  0  0  0  0
 23 18  2  0  0  0  0
 25 27  2  0  0  0  0
 25 26  1  0  0  0  0
 26 28  1  0  0  0  0
 26 29  1  0  0  0  0
 27 30  1  0  0  0  0
 31  6  1  0  0  0  0
 32 31  1  0  0  0  0
 32 33  1  0  0  0  0
 34 33  2  0  0  0  0
 35 34  1  0  0  0  0
 36 37  1  0  0  0  0
 36 35  2  0  0  0  0
 37 32  2  0  0  0  0
 38 36  1  0  0  0  0
 39 38  1  0  0  0  0
 39 40  1  0  0  0  0
 41 38  2  0  0  0  0
 42 39  1  0  0  0  0
 43 42  2  0  0  0  0
 43 41  1  0  0  0  0
M  END
>  <minimizedAffinity>
-12.40813

$$$$
