
 OpenBabel07192215303D

 34 38  0  0  0  0  0  0  0  0999 V2000
    6.2744    3.6000   21.4885 N   0  0  0  0  0  0  0  0  0  0  0  0
    5.1976    4.3051   21.9003 C   0  0  0  0  0  0  0  0  0  0  0  0
    5.4319    5.7697   21.5724 C   0  0  2  0  0  0  0  0  0  0  0  0
    6.9458    5.8292   21.3348 C   0  0  0  0  0  0  0  0  0  0  0  0
    7.3170    4.4319   20.8779 C   0  0  0  0  0  0  0  0  0  0  0  0
    4.1893    3.8678   22.4414 O   0  0  0  0  0  0  0  0  0  0  0  0
    5.0219    6.6150   22.6712 N   0  0  0  0  0  0  0  0  0  0  0  0
    4.0020    6.6257   22.6825 H   0  0  0  0  0  0  0  0  0  0  0  0
    5.5564    8.2656   22.6660 S   0  0  0  0  0  0  0  0  0  0  0  0
    4.5024    8.8778   23.4449 O   0  0  0  0  0  0  0  0  0  0  0  0
    5.7063    8.5766   21.2683 O   0  0  0  0  0  0  0  0  0  0  0  0
    9.4049    8.7289   24.3524 C   0  0  0  0  0  0  0  0  0  0  0  0
   10.7097    9.0248   24.7224 C   0  0  0  0  0  0  0  0  0  0  0  0
   11.3005    8.4516   25.8814 C   0  0  0  0  0  0  0  0  0  0  0  0
   10.5274    7.5570   26.6622 C   0  0  0  0  0  0  0  0  0  0  0  0
    9.2427    7.2550   26.3162 N   0  0  0  0  0  0  0  0  0  0  0  0
    8.6679    7.8129   25.1883 C   0  0  0  0  0  0  0  0  0  0  0  0
    7.3205    7.6213   24.6489 C   0  0  0  0  0  0  0  0  0  0  0  0
    7.1042    8.3625   23.4768 C   0  0  0  0  0  0  0  0  0  0  0  0
    8.4923    9.2737   23.0373 S   0  0  0  0  0  0  0  0  0  0  0  0
    6.4289    2.1401   21.6071 C   0  0  0  0  0  0  0  0  0  0  0  0
    5.2493    1.2540   19.4952 C   0  0  0  0  0  0  0  0  0  0  0  0
    5.3027    0.5985   18.2389 C   0  0  0  0  0  0  0  0  0  0  0  0
    6.5539    0.1419   17.7056 C   0  0  0  0  0  0  0  0  0  0  0  0
    7.8011    0.3396   18.4387 C   0  0  0  0  0  0  0  0  0  0  0  0
    7.7761    0.9888   19.6886 C   0  0  0  0  0  0  0  0  0  0  0  0
    6.4380    1.4768   20.2584 C   0  0  0  0  0  0  0  0  0  0  0  0
    6.5856   -0.5192   16.4446 C   0  0  0  0  0  0  0  0  0  0  0  0
    7.8370   -0.9519   15.9654 C   0  0  0  0  0  0  0  0  0  0  0  0
    9.0166   -0.7693   16.6502 N   0  0  0  0  0  0  0  0  0  0  0  0
    9.0138   -0.1330   17.8707 C   0  0  0  0  0  0  0  0  0  0  0  0
   10.2090    0.0034   18.4707 N   0  0  0  0  0  0  0  0  0  0  0  0
   10.2725    0.4499   19.3458 H   0  0  0  0  0  0  0  0  0  0  0  0
   11.0209   -0.3434   18.0349 H   0  0  0  0  0  0  0  0  0  0  0  0
  1  2  1  0  0  0  0
  1 21  1  0  0  0  0
  2  6  2  0  0  0  0
  3  7  1  1  0  0  0
  3  2  1  0  0  0  0
  4  5  1  0  0  0  0
  4  3  1  0  0  0  0
  5  1  1  0  0  0  0
  7  8  1  0  0  0  0
  9  7  1  0  0  0  0
  9 11  2  0  0  0  0
 10  9  2  0  0  0  0
 12 20  1  0  0  0  0
 13 12  1  0  0  0  0
 14 13  2  0  0  0  0
 15 16  2  0  0  0  0
 15 14  1  0  0  0  0
 16 17  1  0  0  0  0
 17 18  1  0  0  0  0
 17 12  2  0  0  0  0
 18 19  2  0  0  0  0
 19 20  1  0  0  0  0
 19  9  1  0  0  0  0
 21 27  1  0  0  0  0
 22 23  2  0  0  0  0
 22 27  1  0  0  0  0
 23 24  1  0  0  0  0
 24 28  2  0  0  0  0
 24 25  1  0  0  0  0
 25 31  2  0  0  0  0
 26 25  1  0  0  0  0
 27 26  2  0  0  0  0
 28 29  1  0  0  0  0
 29 30  2  0  0  0  0
 31 30  1  0  0  0  0
 31 32  1  0  0  0  0
 32 33  1  0  0  0  0
 32 34  1  0  0  0  0
M  END
>  <minimizedAffinity>
-10.89421

$$$$
