
 OpenBabel07192215303D

 39 43  0  0  0  0  0  0  0  0999 V2000
    5.0435    5.4539   20.3154 C   0  0  1  0  0  0  0  0  0  0  0  0
    5.0698    6.8980   20.9371 C   0  0  0  0  0  0  0  0  0  0  0  0
    5.6919    6.9311   22.3001 N   0  0  0  0  0  0  0  0  0  0  0  0
    4.5633    4.5656   22.7005 C   0  0  0  0  0  0  0  0  0  0  0  0
    4.1527    3.7555   23.5318 O   0  0  0  0  0  0  0  0  0  0  0  0
    5.2058    5.8863   23.2568 C   0  0  0  0  0  0  0  0  0  0  0  0
    4.4786    4.3871   21.2655 N   0  0  0  0  0  0  0  0  0  0  0  0
    6.1203    8.4660   22.9681 S   0  0  0  0  0  0  0  0  0  0  0  0
    5.0060    8.8633   23.9640 O   0  0  0  0  0  0  0  0  0  0  0  0
    6.1325    9.4958   21.8241 O   0  0  0  0  0  0  0  0  0  0  0  0
    7.9030    7.5836   24.9394 C   0  0  0  0  0  0  0  0  0  0  0  0
    7.6905    8.4073   23.7574 C   0  0  0  0  0  0  0  0  0  0  0  0
   10.3623    8.3497   25.0648 C   0  0  0  0  0  0  0  0  0  0  0  0
   10.1258    9.1759   23.8633 C   0  0  0  0  0  0  0  0  0  0  0  0
    8.8327    9.1984   23.2390 C   0  0  0  0  0  0  0  0  0  0  0  0
    9.1972    7.5211   25.6196 C   0  0  0  0  0  0  0  0  0  0  0  0
   13.4157    7.4174   27.7565 Cl  0  0  0  0  0  0  0  0  0  0  0  0
    9.4302    6.6974   26.8198 C   0  0  0  0  0  0  0  0  0  0  0  0
   11.6587    8.2889   25.7551 C   0  0  0  0  0  0  0  0  0  0  0  0
   10.7159    6.6778   27.4528 C   0  0  0  0  0  0  0  0  0  0  0  0
   11.8494    7.4684   26.9370 C   0  0  0  0  0  0  0  0  0  0  0  0
    4.5982    5.5037   18.8373 C   0  0  0  0  0  0  0  0  0  0  0  0
    5.3377    5.2141   17.9123 O   0  0  0  0  0  0  0  0  0  0  0  0
    3.2965    5.9391   18.6865 O   0  0  0  0  0  0  0  0  0  0  0  0
    2.5224    5.5166   17.4986 C   0  0  0  0  0  0  0  0  0  0  0  0
    1.6451    4.2983   17.8424 C   0  0  0  0  0  0  0  0  0  0  0  0
    3.8503    3.1279   20.7048 C   0  0  0  0  0  0  0  0  0  0  0  0
    7.2600    1.3548   18.4618 N   0  0  0  0  0  0  0  0  0  0  0  0
    7.4539    2.0154   19.8189 C   0  0  0  0  0  0  0  0  0  0  0  0
    6.0170    1.8115   17.7168 C   0  0  0  0  0  0  0  0  0  0  0  0
    4.7745    2.0079   20.1102 C   0  0  0  0  0  0  0  0  0  0  0  0
    6.2197    1.9592   20.7784 C   0  0  0  0  0  0  0  0  0  0  0  0
    4.6791    1.7399   18.5339 C   0  0  0  0  0  0  0  0  0  0  0  0
    8.7570   -1.6064   16.3740 C   0  0  0  0  0  0  0  0  0  0  0  0
    8.2155    0.3195   17.9096 C   0  0  0  0  0  0  0  0  0  0  0  0
    7.8077   -0.6437   16.8585 C   0  0  0  0  0  0  0  0  0  0  0  0
    9.6177    0.2022   18.3940 C   0  0  0  0  0  0  0  0  0  0  0  0
   10.0574   -1.6870   16.8498 N   0  0  0  0  0  0  0  0  0  0  0  0
   10.4775   -0.8066   17.8325 C   0  0  0  0  0  0  0  0  0  0  0  0
  1 22  1  6  0  0  0
  1  2  1  0  0  0  0
  3  2  1  0  0  0  0
  3  8  1  0  0  0  0
  4  7  1  0  0  0  0
  4  6  1  0  0  0  0
  5  4  2  0  0  0  0
  6  3  1  0  0  0  0
  7  1  1  0  0  0  0
  8 12  1  0  0  0  0
  8  9  2  0  0  0  0
 10  8  2  0  0  0  0
 11 16  1  0  0  0  0
 12 11  2  0  0  0  0
 13 19  2  0  0  0  0
 13 16  1  0  0  0  0
 14 13  1  0  0  0  0
 15 14  2  0  0  0  0
 15 12  1  0  0  0  0
 16 18  2  0  0  0  0
 18 20  1  0  0  0  0
 19 21  1  0  0  0  0
 21 17  1  0  0  0  0
 21 20  2  0  0  0  0
 22 24  1  0  0  0  0
 23 22  2  0  0  0  0
 25 24  1  0  0  0  0
 25 26  1  0  0  0  0
 27  7  1  0  0  0  0
 28 30  1  0  0  0  0
 29 28  1  0  0  0  0
 31 33  1  0  0  0  0
 31 27  1  0  0  0  0
 32 29  1  0  0  0  0
 32 31  2  0  0  0  0
 33 30  2  0  0  0  0
 34 36  1  0  0  0  0
 35 36  2  0  0  0  0
 35 28  1  0  0  0  0
 37 35  1  0  0  0  0
 38 34  2  0  0  0  0
 39 38  1  0  0  0  0
 39 37  2  0  0  0  0
M  END
>  <minimizedAffinity>
-10.02647

$$$$
