
 OpenBabel07192215303D

 36 40  0  0  0  0  0  0  0  0999 V2000
    8.1939    6.2159   20.7413 N   0  0  0  0  0  0  0  0  0  0  0  0
    7.4223    7.3255   21.1047 C   0  0  0  0  0  0  0  0  0  0  0  0
    6.1185    7.1495   21.5981 N   0  0  0  0  0  0  0  0  0  0  0  0
    6.0638    5.7636   21.5410 C   0  0  0  0  0  0  0  0  0  0  0  0
    7.2978    5.2121   21.0305 C   0  0  0  0  0  0  0  0  0  0  0  0
    4.9873    4.8916   21.9041 C   0  0  0  0  0  0  0  0  0  0  0  0
    5.1541    3.5086   21.7648 C   0  0  0  0  0  0  0  0  0  0  0  0
    6.3668    2.9527   21.2640 C   0  0  0  0  0  0  0  0  0  0  0  0
    7.4491    3.7977   20.8919 C   0  0  0  0  0  0  0  0  0  0  0  0
    5.0994    8.1374   22.0503 C   0  0  0  0  0  0  0  0  0  0  0  0
    8.0295    8.7330   20.9551 C   0  0  0  0  0  0  0  0  0  0  0  0
    8.3982    9.4265   22.2082 N   0  0  0  0  0  0  0  0  0  0  0  0
    8.3501   10.4097   22.1924 H   0  0  0  0  0  0  0  0  0  0  0  0
    9.7018    7.6620   25.9176 C   0  0  0  0  0  0  0  0  0  0  0  0
    8.4119    7.3666   25.3650 C   0  0  0  0  0  0  0  0  0  0  0  0
    7.9827    7.9400   24.1573 C   0  0  0  0  0  0  0  0  0  0  0  0
    8.8189    8.8295   23.4473 C   0  0  0  0  0  0  0  0  0  0  0  0
   10.0946    9.1481   23.9555 C   0  0  0  0  0  0  0  0  0  0  0  0
   10.5352    8.5751   25.1727 C   0  0  0  0  0  0  0  0  0  0  0  0
    9.3359    6.8857   28.1528 N   0  0  0  0  0  0  0  0  0  0  0  0
   11.3305    6.6222   27.3498 N   0  0  0  0  0  0  0  0  0  0  0  0
   10.1209    7.0865   27.1198 C   0  0  0  0  0  0  0  0  0  0  0  0
    8.3977    7.1826   28.1232 H   0  0  0  0  0  0  0  0  0  0  0  0
    9.6854    6.4381   28.9570 H   0  0  0  0  0  0  0  0  0  0  0  0
   12.0284    6.7036   26.6602 H   0  0  0  0  0  0  0  0  0  0  0  0
    6.4868    1.4218   21.1411 C   0  0  0  0  0  0  0  0  0  0  0  0
    6.4880    0.9181   19.7194 N   0  0  0  0  0  0  0  0  0  0  0  0
    5.4456    0.6930   18.7892 C   0  0  0  0  0  0  0  0  0  0  0  0
    5.7008    0.2147   17.5050 N   0  0  0  0  0  0  0  0  0  0  0  0
    7.0737    0.1122   17.5973 C   0  0  0  0  0  0  0  0  0  0  0  0
    7.5466    0.5232   18.9040 C   0  0  0  0  0  0  0  0  0  0  0  0
    8.0017   -0.3296   16.5996 C   0  0  0  0  0  0  0  0  0  0  0  0
    9.3781   -0.3529   16.9094 C   0  0  0  0  0  0  0  0  0  0  0  0
    9.8477    0.0485   18.1838 C   0  0  0  0  0  0  0  0  0  0  0  0
    8.9548    0.4900   19.1854 C   0  0  0  0  0  0  0  0  0  0  0  0
    3.9936    0.9677   19.1502 C   0  0  0  0  0  0  0  0  0  0  0  0
  2  1  2  0  0  0  0
  2 11  1  0  0  0  0
  3  2  1  0  0  0  0
  4  3  1  0  0  0  0
  4  5  1  0  0  0  0
  5  1  1  0  0  0  0
  6  4  2  0  0  0  0
  7  6  1  0  0  0  0
  7  8  2  0  0  0  0
  8  9  1  0  0  0  0
  9  5  2  0  0  0  0
 10  3  1  0  0  0  0
 11 12  1  0  0  0  0
 12 17  1  0  0  0  0
 12 13  1  0  0  0  0
 14 22  1  0  0  0  0
 15 14  1  0  0  0  0
 16 15  2  0  0  0  0
 17 18  2  0  0  0  0
 17 16  1  0  0  0  0
 18 19  1  0  0  0  0
 19 14  2  0  0  0  0
 20 23  1  0  0  0  0
 20 24  1  0  0  0  0
 21 25  1  0  0  0  0
 22 21  2  0  0  0  0
 22 20  1  0  0  0  0
 26  8  1  0  0  0  0
 27 26  1  0  0  0  0
 28 27  1  0  0  0  0
 29 30  1  0  0  0  0
 29 28  2  0  0  0  0
 30 31  1  0  0  0  0
 31 27  1  0  0  0  0
 31 35  2  0  0  0  0
 32 30  2  0  0  0  0
 32 33  1  0  0  0  0
 33 34  2  0  0  0  0
 34 35  1  0  0  0  0
 36 28  1  0  0  0  0
M  END
>  <minimizedAffinity>
-12.79951

$$$$
