
 OpenBabel07192215303D

 40 42  0  0  0  0  0  0  0  0999 V2000
    5.2329    4.2290   22.4258 C   0  0  0  0  0  0  0  0  0  0  0  0
    5.4849    5.5748   22.2848 N   0  0  0  0  0  0  0  0  0  0  0  0
    4.4650    3.8011   23.2949 O   0  0  0  0  0  0  0  0  0  0  0  0
    6.1056    5.8625   21.5768 H   0  0  0  0  0  0  0  0  0  0  0  0
    5.4690    2.0229   21.1948 C   0  0  0  0  0  0  0  0  0  0  0  0
    5.9502    3.3352   21.4745 C   0  0  0  0  0  0  0  0  0  0  0  0
    7.1418    3.7626   20.8094 C   0  0  0  0  0  0  0  0  0  0  0  0
    7.8153    2.9009   19.9012 C   0  0  0  0  0  0  0  0  0  0  0  0
    7.3332    1.5968   19.6261 C   0  0  0  0  0  0  0  0  0  0  0  0
    6.1501    1.1780   20.2898 C   0  0  0  0  0  0  0  0  0  0  0  0
    9.4126    0.3311   18.8456 C   0  0  0  0  0  0  0  0  0  0  0  0
    8.0506    0.6760   18.6587 C   0  0  0  0  0  0  0  0  0  0  0  0
    7.3822    0.1280   17.5355 C   0  0  0  0  0  0  0  0  0  0  0  0
    8.0363   -0.7375   16.6227 C   0  0  0  0  0  0  0  0  0  0  0  0
    9.3965   -1.0759   16.8169 C   0  0  0  0  0  0  0  0  0  0  0  0
   10.0900   -0.5397   17.9351 C   0  0  0  0  0  0  0  0  0  0  0  0
   11.5352   -0.8851   18.1606 C   0  0  0  0  0  0  0  0  0  0  0  0
   11.9305   -2.0625   17.3794 N   0  0  0  0  0  0  0  0  0  0  0  0
   11.8071   -1.8683   16.3857 H   0  0  0  0  0  0  0  0  0  0  0  0
   11.3494   -2.8576   17.6451 H   0  0  0  0  0  0  0  0  0  0  0  0
    4.8747    6.6030   23.1372 C   0  0  2  0  0  0  0  0  0  0  0  0
    4.2409    7.6682   22.2278 C   0  0  0  0  0  0  0  0  0  0  0  0
    5.9741    7.1925   24.0995 C   0  0  2  0  0  0  0  0  0  0  0  0
    5.3629    8.3933   24.8728 C   0  0  0  0  0  0  0  0  0  0  0  0
    5.7950    9.5120   24.8563 O   0  0  0  0  0  0  0  0  0  0  0  0
    4.1390    8.0493   25.5217 O   0  0  0  0  0  0  0  0  0  0  0  0
    3.2081    9.0818   25.8795 C   0  0  0  0  0  0  0  0  0  0  0  0
    7.2491    7.6389   23.2937 C   0  0  0  0  0  0  0  0  0  0  0  0
    8.8194    7.3786   25.3339 C   0  0  0  0  0  0  0  0  0  0  0  0
   10.0025    7.7288   26.0309 C   0  0  0  0  0  0  0  0  0  0  0  0
   10.8813    8.6950   25.4710 C   0  0  0  0  0  0  0  0  0  0  0  0
   10.5776    9.2955   24.2343 C   0  0  0  0  0  0  0  0  0  0  0  0
    9.3998    8.9407   23.5479 C   0  0  0  0  0  0  0  0  0  0  0  0
    8.5045    7.9792   24.0843 C   0  0  0  0  0  0  0  0  0  0  0  0
   10.3227    7.1083   27.3213 C   0  0  0  0  0  0  0  0  0  0  0  0
    9.3514    6.8680   28.2244 N   0  0  0  0  0  0  0  0  0  0  0  0
   11.5875    6.7710   27.6115 N   0  0  0  0  0  0  0  0  0  0  0  0
    8.4194    7.1117   28.0216 H   0  0  0  0  0  0  0  0  0  0  0  0
   12.3047    6.9421   26.9591 H   0  0  0  0  0  0  0  0  0  0  0  0
   11.7990    6.3523   28.4771 H   0  0  0  0  0  0  0  0  0  0  0  0
  1  3  2  0  0  0  0
  2  1  1  0  0  0  0
  2 21  1  0  0  0  0
  2  4  1  0  0  0  0
  5  6  1  0  0  0  0
  6  1  1  0  0  0  0
  7  6  2  0  0  0  0
  8  7  1  0  0  0  0
  9 10  1  0  0  0  0
  9  8  2  0  0  0  0
 10  5  2  0  0  0  0
 11 12  1  0  0  0  0
 12 13  2  0  0  0  0
 12  9  1  0  0  0  0
 14 13  1  0  0  0  0
 15 14  2  0  0  0  0
 16 15  1  0  0  0  0
 16 11  2  0  0  0  0
 17 16  1  0  0  0  0
 18 17  1  0  0  0  0
 18 19  1  0  0  0  0
 18 20  1  0  0  0  0
 21 22  1  6  0  0  0
 21 23  1  0  0  0  0
 23 28  1  6  0  0  0
 23 24  1  0  0  0  0
 24 25  2  0  0  0  0
 24 26  1  0  0  0  0
 26 27  1  0  0  0  0
 28 34  1  0  0  0  0
 29 30  1  0  0  0  0
 30 35  1  0  0  0  0
 31 30  2  0  0  0  0
 32 31  1  0  0  0  0
 33 34  1  0  0  0  0
 33 32  2  0  0  0  0
 34 29  2  0  0  0  0
 35 36  2  0  0  0  0
 35 37  1  0  0  0  0
 36 38  1  0  0  0  0
 37 39  1  0  0  0  0
 37 40  1  0  0  0  0
M  END
>  <minimizedAffinity>
-13.86973

$$$$
