


 38 43  0  0  0  0  0  0  0  0999 V2000
    4.8130    4.7433   22.7954 C   0  0  0  0  0  0  0  0  0  0  0  0
    4.5648    3.7959   23.5373 O   0  0  0  0  0  0  0  0  0  0  0  0
    5.2404    6.1120   23.4365 C   0  0  0  0  0  0  0  0  0  0  0  0
    5.5244    7.2461   22.5160 N   0  0  0  0  0  0  0  0  0  0  0  0
    5.0684    5.8576   20.4492 C   0  0  0  0  0  0  0  0  0  0  0  0
    6.0440    6.8781   21.1825 C   0  0  0  0  0  0  0  0  0  0  0  0
    4.7537    4.6976   21.3577 N   0  0  0  0  0  0  0  0  0  0  0  0
    4.8888    3.4637   20.5584 C   0  0  0  0  0  0  0  0  0  0  0  0
    7.3351    1.2729   18.6666 N   0  0  0  0  0  0  0  0  0  0  0  0
    7.7296    1.9874   19.9850 C   0  0  0  0  0  0  0  0  0  0  0  0
    5.9636    1.6421   18.0375 C   0  0  0  0  0  0  0  0  0  0  0  0
    5.9384    3.8596   19.4672 C   0  0  0  0  0  0  0  0  0  0  0  0
    5.7512    5.2997   19.3293 O   0  0  0  0  0  0  0  0  0  0  0  0
    7.4344    3.5164   19.8982 C   0  0  0  0  0  0  0  0  0  0  0  0
    5.7134    3.1897   18.0547 C   0  0  0  0  0  0  0  0  0  0  0  0
    8.6908   -1.5629   16.3635 C   0  0  0  0  0  0  0  0  0  0  0  0
    8.2439    0.2630   18.0289 C   0  0  0  0  0  0  0  0  0  0  0  0
    7.7830   -0.6160   16.9286 C   0  0  0  0  0  0  0  0  0  0  0  0
    9.6499    0.0883   18.4668 C   0  0  0  0  0  0  0  0  0  0  0  0
    9.9996   -1.7007   16.7974 N   0  0  0  0  0  0  0  0  0  0  0  0
   10.4688   -0.8968   17.8222 C   0  0  0  0  0  0  0  0  0  0  0  0
    6.0118    8.7968   22.9602 S   0  0  0  0  0  0  0  0  0  0  0  0
    4.9859    9.2923   24.0200 O   0  0  0  0  0  0  0  0  0  0  0  0
    6.0500    9.7225   21.7303 O   0  0  0  0  0  0  0  0  0  0  0  0
    7.7005    7.9091   24.9281 C   0  0  0  0  0  0  0  0  0  0  0  0
    7.5688    8.7079   23.7204 C   0  0  0  0  0  0  0  0  0  0  0  0
   10.2653    8.3679   24.9435 C   0  0  0  0  0  0  0  0  0  0  0  0
   10.1126    9.1747   23.7127 C   0  0  0  0  0  0  0  0  0  0  0  0
    8.8035    9.3404   23.1205 C   0  0  0  0  0  0  0  0  0  0  0  0
    8.9862    7.7059   25.5748 C   0  0  0  0  0  0  0  0  0  0  0  0
   13.1502    7.1229   27.6227 Cl  0  0  0  0  0  0  0  0  0  0  0  0
    9.1193    6.9017   26.8079 C   0  0  0  0  0  0  0  0  0  0  0  0
   11.5397    8.1585   25.6083 C   0  0  0  0  0  0  0  0  0  0  0  0
   10.4080    6.7415   27.4081 C   0  0  0  0  0  0  0  0  0  0  0  0
   11.6163    7.3583   26.8248 C   0  0  0  0  0  0  0  0  0  0  0  0
    3.8446    6.7077   19.9108 C   0  0  0  0  0  0  0  0  0  0  0  0
    2.6757    6.7062   20.7763 O   0  0  0  0  0  0  0  0  0  0  0  0
    2.2612    7.9203   21.2507 C   0  0  0  0  0  0  0  0  0  0  0  0
 16 18  2  0  0  0
 16 20  1  0  0  0
 18 17  1  0  0  0
 20 21  2  0  0  0
 21 19  1  0  0  0
 17 19  2  0  0  0
 17  9  1  0  0  0
 11 15  1  0  0  0
 11  9  1  0  0  0
 15 12  1  0  0  0
 38 37  1  0  0  0
  9 10  1  0  0  0
 37 36  1  0  0  0
 12 13  1  0  0  0
 12 14  1  0  0  0
 12  8  1  0  0  0
 13  5  1  0  0  0
 10 14  1  0  0  0
 36  5  1  0  0  0
  8  7  1  0  0  0
  5  7  1  0  0  0
  5  6  1  0  0  0
  7  1  1  0  0  0
  6  4  1  0  0  0
  1  2  2  0  0  0
  1  3  1  0  0  0
 24 22  2  0  0  0
  4  3  1  0  0  0
  4 22  1  0  0  0
 29 28  2  0  0  0
 29 26  1  0  0  0
 28 27  1  0  0  0
 22 26  1  0  0  0
 22 23  2  0  0  0
 26 25  2  0  0  0
 27 33  2  0  0  0
 27 30  1  0  0  0
 33 35  1  0  0  0
 25 30  1  0  0  0
 30 32  2  0  0  0
 35 31  1  0  0  0
 35 34  2  0  0  0
 32 34  1  0  0  0
M  END
> <minimizedAffinity>
-9.60436

$$$$



 38 43  0  0  0  0  0  0  0  0999 V2000
    4.6535    6.2210   18.2565 C   0  0  0  0  0  0  0  0  0  0  0  0
    5.1832    7.1087   17.5925 O   0  0  0  0  0  0  0  0  0  0  0  0
    4.3715    4.8346   17.5743 C   0  0  0  0  0  0  0  0  0  0  0  0
    3.7189    3.7807   18.3976 N   0  0  0  0  0  0  0  0  0  0  0  0
    3.6325    5.2532   20.4548 C   0  0  0  0  0  0  0  0  0  0  0  0
    4.0010    3.8298   19.8474 C   0  0  0  0  0  0  0  0  0  0  0  0
    4.2726    6.3463   19.6392 N   0  0  0  0  0  0  0  0  0  0  0  0
    4.8792    7.3033   20.5857 C   0  0  0  0  0  0  0  0  0  0  0  0
    7.5672    7.7434   23.2209 N   0  0  0  0  0  0  0  0  0  0  0  0
    7.8009    6.8837   21.9517 C   0  0  0  0  0  0  0  0  0  0  0  0
    6.1247    8.2599   23.4775 C   0  0  0  0  0  0  0  0  0  0  0  0
    5.2034    6.4143   21.8321 C   0  0  0  0  0  0  0  0  0  0  0  0
    4.2039    5.3545   21.7566 O   0  0  0  0  0  0  0  0  0  0  0  0
    6.6790    5.8122   21.7922 C   0  0  0  0  0  0  0  0  0  0  0  0
    5.0536    7.1431   23.2253 C   0  0  0  0  0  0  0  0  0  0  0  0
   10.8126    9.2864   24.7277 C   0  0  0  0  0  0  0  0  0  0  0  0
    8.6935    8.0642   24.1595 C   0  0  0  0  0  0  0  0  0  0  0  0
    9.7622    9.0241   23.7960 C   0  0  0  0  0  0  0  0  0  0  0  0
    8.7992    7.4365   25.4989 C   0  0  0  0  0  0  0  0  0  0  0  0
   10.8817    8.6811   25.9723 N   0  0  0  0  0  0  0  0  0  0  0  0
    9.9013    7.7795   26.3499 C   0  0  0  0  0  0  0  0  0  0  0  0
    3.3313    2.2187   17.8984 S   0  0  0  0  0  0  0  0  0  0  0  0
    2.4903    2.3699   16.5979 O   0  0  0  0  0  0  0  0  0  0  0  0
    2.5475    1.4803   18.9990 O   0  0  0  0  0  0  0  0  0  0  0  0
    5.9584    1.5746   18.3406 C   0  0  0  0  0  0  0  0  0  0  0  0
    4.7908    1.3705   17.4985 C   0  0  0  0  0  0  0  0  0  0  0  0
    7.2557   -0.2178   16.9647 C   0  0  0  0  0  0  0  0  0  0  0  0
    6.0570   -0.4144   16.1200 C   0  0  0  0  0  0  0  0  0  0  0  0
    4.8616    0.3576   16.3788 C   0  0  0  0  0  0  0  0  0  0  0  0
    7.1914    0.8338   18.1321 C   0  0  0  0  0  0  0  0  0  0  0  0
   11.1383   -1.5603   17.3819 Cl  0  0  0  0  0  0  0  0  0  0  0  0
    8.3817    1.0477   18.9821 C   0  0  0  0  0  0  0  0  0  0  0  0
    8.4989   -0.9431   16.7685 C   0  0  0  0  0  0  0  0  0  0  0  0
    9.5729    0.2975   18.7269 C   0  0  0  0  0  0  0  0  0  0  0  0
    9.6455   -0.6925   17.6335 C   0  0  0  0  0  0  0  0  0  0  0  0
    2.0552    5.2888   20.6013 C   0  0  0  0  0  0  0  0  0  0  0  0
    1.3675    6.0673   19.5832 O   0  0  0  0  0  0  0  0  0  0  0  0
    0.5167    5.3843   18.7583 C   0  0  0  0  0  0  0  0  0  0  0  0
 16 18  2  0  0  0
 16 20  1  0  0  0
 18 17  1  0  0  0
 20 21  2  0  0  0
 21 19  1  0  0  0
 17 19  2  0  0  0
 17  9  1  0  0  0
 11 15  1  0  0  0
 11  9  1  0  0  0
 15 12  1  0  0  0
 38 37  1  0  0  0
  9 10  1  0  0  0
 37 36  1  0  0  0
 12 13  1  0  0  0
 12 14  1  0  0  0
 12  8  1  0  0  0
 13  5  1  0  0  0
 10 14  1  0  0  0
 36  5  1  0  0  0
  8  7  1  0  0  0
  5  7  1  0  0  0
  5  6  1  0  0  0
  7  1  1  0  0  0
  6  4  1  0  0  0
  1  2  2  0  0  0
  1  3  1  0  0  0
 24 22  2  0  0  0
  4  3  1  0  0  0
  4 22  1  0  0  0
 29 28  2  0  0  0
 29 26  1  0  0  0
 28 27  1  0  0  0
 22 26  1  0  0  0
 22 23  2  0  0  0
 26 25  2  0  0  0
 27 33  2  0  0  0
 27 30  1  0  0  0
 33 35  1  0  0  0
 25 30  1  0  0  0
 30 32  2  0  0  0
 35 31  1  0  0  0
 35 34  2  0  0  0
 32 34  1  0  0  0
M  END
> <minimizedAffinity>
-9.07946

$$$$



 38 43  0  0  0  0  0  0  0  0999 V2000
    4.7698    5.6063   18.1063 C   0  0  0  0  0  0  0  0  0  0  0  0
    5.0453    6.6398   17.5018 O   0  0  0  0  0  0  0  0  0  0  0  0
    4.7742    4.2473   17.3186 C   0  0  0  0  0  0  0  0  0  0  0  0
    4.4260    3.0123   18.0720 N   0  0  0  0  0  0  0  0  0  0  0  0
    4.1201    4.2661   20.2496 C   0  0  0  0  0  0  0  0  0  0  0  0
    4.7695    3.0166   19.5093 C   0  0  0  0  0  0  0  0  0  0  0  0
    4.4476    5.5359   19.5077 N   0  0  0  0  0  0  0  0  0  0  0  0
    4.8714    6.5338   20.5099 C   0  0  0  0  0  0  0  0  0  0  0  0
    7.5299    7.3867   23.0726 N   0  0  0  0  0  0  0  0  0  0  0  0
    7.8828    6.7022   21.7268 C   0  0  0  0  0  0  0  0  0  0  0  0
    6.0241    7.5337   23.4253 C   0  0  0  0  0  0  0  0  0  0  0  0
    5.4585    5.6534   21.6627 C   0  0  0  0  0  0  0  0  0  0  0  0
    4.7246    4.3994   21.5334 O   0  0  0  0  0  0  0  0  0  0  0  0
    7.0280    5.4146   21.5173 C   0  0  0  0  0  0  0  0  0  0  0  0
    5.2238    6.2211   23.1178 C   0  0  0  0  0  0  0  0  0  0  0  0
   10.5963    9.3388   24.4762 C   0  0  0  0  0  0  0  0  0  0  0  0
    8.6035    7.8887   23.9934 C   0  0  0  0  0  0  0  0  0  0  0  0
    9.5931    8.9021   23.5581 C   0  0  0  0  0  0  0  0  0  0  0  0
    8.7338    7.3962   25.3860 C   0  0  0  0  0  0  0  0  0  0  0  0
   10.6903    8.8568   25.7720 N   0  0  0  0  0  0  0  0  0  0  0  0
    9.7834    7.9102   26.2172 C   0  0  0  0  0  0  0  0  0  0  0  0
    4.3780    1.4448   17.4553 S   0  0  0  0  0  0  0  0  0  0  0  0
    4.0170    1.5776   15.9475 O   0  0  0  0  0  0  0  0  0  0  0  0
    3.3403    0.5984   18.2154 O   0  0  0  0  0  0  0  0  0  0  0  0
    6.2961   -0.3446   16.6611 C   0  0  0  0  0  0  0  0  0  0  0  0
    5.9591    0.7399   17.5689 C   0  0  0  0  0  0  0  0  0  0  0  0
    8.7278   -0.3631   17.5967 C   0  0  0  0  0  0  0  0  0  0  0  0
    8.3676    0.7427   18.5113 C   0  0  0  0  0  0  0  0  0  0  0  0
    7.0235    1.2766   18.4982 C   0  0  0  0  0  0  0  0  0  0  0  0
    7.6270   -0.9279   16.6262 C   0  0  0  0  0  0  0  0  0  0  0  0
   11.9209   -2.7809   16.5922 Cl  0  0  0  0  0  0  0  0  0  0  0  0
    7.9675   -2.0368   15.7100 C   0  0  0  0  0  0  0  0  0  0  0  0
   10.0496   -0.9637   17.5513 C   0  0  0  0  0  0  0  0  0  0  0  0
    9.2911   -2.5798   15.7235 C   0  0  0  0  0  0  0  0  0  0  0  0
   10.3332   -2.0580   16.6305 C   0  0  0  0  0  0  0  0  0  0  0  0
    2.5869    3.9239   20.4563 C   0  0  0  0  0  0  0  0  0  0  0  0
    1.6903    4.5440   19.4936 O   0  0  0  0  0  0  0  0  0  0  0  0
    0.9248    3.7011   18.7357 C   0  0  0  0  0  0  0  0  0  0  0  0
 16 18  2  0  0  0
 16 20  1  0  0  0
 18 17  1  0  0  0
 20 21  2  0  0  0
 21 19  1  0  0  0
 17 19  2  0  0  0
 17  9  1  0  0  0
 11 15  1  0  0  0
 11  9  1  0  0  0
 15 12  1  0  0  0
 38 37  1  0  0  0
  9 10  1  0  0  0
 37 36  1  0  0  0
 12 13  1  0  0  0
 12 14  1  0  0  0
 12  8  1  0  0  0
 13  5  1  0  0  0
 10 14  1  0  0  0
 36  5  1  0  0  0
  8  7  1  0  0  0
  5  7  1  0  0  0
  5  6  1  0  0  0
  7  1  1  0  0  0
  6  4  1  0  0  0
  1  2  2  0  0  0
  1  3  1  0  0  0
 24 22  2  0  0  0
  4  3  1  0  0  0
  4 22  1  0  0  0
 29 28  2  0  0  0
 29 26  1  0  0  0
 28 27  1  0  0  0
 22 26  1  0  0  0
 22 23  2  0  0  0
 26 25  2  0  0  0
 27 33  2  0  0  0
 27 30  1  0  0  0
 33 35  1  0  0  0
 25 30  1  0  0  0
 30 32  2  0  0  0
 35 31  1  0  0  0
 35 34  2  0  0  0
 32 34  1  0  0  0
M  END
> <minimizedAffinity>
-8.84648

$$$$
