
 OpenBabel07192215303D

 40 43  0  0  0  0  0  0  0  0999 V2000
    5.8656    1.1156   18.8900 C   0  0  1  0  0  0  0  0  0  0  0  0
    5.1491    3.5492   19.1286 C   0  0  0  0  0  0  0  0  0  0  0  0
    5.3566    4.8238   19.6389 C   0  0  0  0  0  0  0  0  0  0  0  0
    7.0245    2.7153   20.4235 C   0  0  0  0  0  0  0  0  0  0  0  0
    7.2288    3.9894   20.9364 C   0  0  0  0  0  0  0  0  0  0  0  0
    6.3948    5.0382   20.5390 C   0  0  0  0  0  0  0  0  0  0  0  0
    5.9934    2.5023   19.5149 C   0  0  0  0  0  0  0  0  0  0  0  0
    6.6038    6.3747   21.0453 O   0  0  0  0  0  0  0  0  0  0  0  0
    8.8449    8.4135   22.8899 N   0  0  0  0  0  0  0  0  0  0  0  0
    7.8935    7.3098   22.8554 C   0  0  0  0  0  0  0  0  0  0  0  0
    7.8295    6.9231   21.3972 C   0  0  2  0  0  0  0  0  0  0  0  0
    8.1849    8.2075   20.7517 C   0  0  0  0  0  0  0  0  0  0  0  0
    9.1438    9.0187   21.5864 C   0  0  0  0  0  0  0  0  0  0  0  0
    9.3887    8.8118   24.0355 C   0  0  1  0  0  0  0  0  0  0  0  0
   10.0455    9.9573   24.0800 N   0  0  0  0  0  0  0  0  0  0  0  0
    9.2455    8.0571   25.3580 C   0  0  0  0  0  0  0  0  0  0  0  0
   10.4964   10.3014   23.2849 H   0  0  0  0  0  0  0  0  0  0  0  0
   10.0646   10.4170   24.9449 H   0  0  0  0  0  0  0  0  0  0  0  0
    4.4833    0.5171   18.6259 C   0  0  0  0  0  0  0  0  0  0  0  0
    4.2370   -0.0150   17.5397 O   0  0  0  0  0  0  0  0  0  0  0  0
    3.6721    0.5560   19.5541 O   0  0  0  0  0  0  0  0  0  0  0  0
    4.8851   -0.0203   16.8630 H   0  0  0  0  0  0  0  0  0  0  0  0
    6.6164    1.1014   17.5642 C   0  0  0  0  0  0  0  0  0  0  0  0
    8.0634   -0.7005   16.6706 C   0  0  0  0  0  0  0  0  0  0  0  0
    7.9515    0.3770   17.5273 C   0  0  0  0  0  0  0  0  0  0  0  0
    9.0582    0.7302   18.3244 C   0  0  0  0  0  0  0  0  0  0  0  0
   10.2078   -0.0685   18.3272 C   0  0  0  0  0  0  0  0  0  0  0  0
   10.2675   -1.1898   17.4933 C   0  0  0  0  0  0  0  0  0  0  0  0
   11.4044   -1.9981   17.4618 C   0  0  0  0  0  0  0  0  0  0  0  0
   11.4470   -3.0974   16.5995 C   0  0  0  0  0  0  0  0  0  0  0  0
   10.3856   -3.3727   15.7198 C   0  0  0  0  0  0  0  0  0  0  0  0
    9.2515   -2.5881   15.8385 C   0  0  0  0  0  0  0  0  0  0  0  0
    9.1884   -1.4887   16.6523 C   0  0  0  0  0  0  0  0  0  0  0  0
   10.4435   -4.3589   14.7455 C   0  0  0  0  0  0  0  0  0  0  0  0
   11.5768   -5.0447   14.5812 N   0  0  0  0  0  0  0  0  0  0  0  0
    9.3652   -4.6174   13.9935 N   0  0  0  0  0  0  0  0  0  0  0  0
   11.7172   -5.7673   13.9186 H   0  0  0  0  0  0  0  0  0  0  0  0
    8.5343   -4.0861   14.1651 H   0  0  0  0  0  0  0  0  0  0  0  0
    9.3452   -5.3112   13.2781 H   0  0  0  0  0  0  0  0  0  0  0  0
   12.3800   -4.7611   15.1269 H   0  0  0  0  0  0  0  0  0  0  0  0
  1 23  1  6  0  0  0
  3  2  1  0  0  0  0
  4  7  1  0  0  0  0
  5  4  2  0  0  0  0
  5  6  1  0  0  0  0
  6  3  2  0  0  0  0
  7  1  1  0  0  0  0
  7  2  2  0  0  0  0
  8  6  1  0  0  0  0
  9 13  1  0  0  0  0
  9 10  1  0  0  0  0
 10 11  1  0  0  0  0
 11  8  1  6  0  0  0
 12 11  1  0  0  0  0
 13 12  1  0  0  0  0
 14 16  1  1  0  0  0
 14  9  1  0  0  0  0
 15 14  1  0  0  0  0
 17 15  1  0  0  0  0
 18 15  1  0  0  0  0
 19  1  1  0  0  0  0
 19 20  1  0  0  0  0
 20 22  1  0  0  0  0
 21 19  2  0  0  0  0
 23 25  1  0  0  0  0
 24 33  1  0  0  0  0
 25 24  2  0  0  0  0
 26 27  2  0  0  0  0
 26 25  1  0  0  0  0
 27 28  1  0  0  0  0
 28 29  2  0  0  0  0
 28 33  1  0  0  0  0
 29 30  1  0  0  0  0
 30 31  2  0  0  0  0
 31 34  1  0  0  0  0
 32 31  1  0  0  0  0
 33 32  2  0  0  0  0
 34 36  2  0  0  0  0
 34 35  1  0  0  0  0
 35 37  1  0  0  0  0
 36 39  1  0  0  0  0
 38 36  1  0  0  0  0
 40 35  1  0  0  0  0
M  END
>  <minimizedAffinity>
-11.50304

$$$$
