
 OpenBabel07192215303D

 34 38  0  0  0  0  0  0  0  0999 V2000
    5.6544    6.1019   22.5874 N   0  0  0  0  0  0  0  0  0  0  0  0
    4.9265    4.9718   22.7269 C   0  0  0  0  0  0  0  0  0  0  0  0
    5.3543    3.9921   21.6478 C   0  0  2  0  0  0  0  0  0  0  0  0
    6.0852    4.8891   20.6414 C   0  0  0  0  0  0  0  0  0  0  0  0
    6.6009    6.0510   21.4679 C   0  0  0  0  0  0  0  0  0  0  0  0
    4.0679    4.7438   23.5704 O   0  0  0  0  0  0  0  0  0  0  0  0
    4.2056    3.3408   21.0593 N   0  0  0  0  0  0  0  0  0  0  0  0
    3.3891    3.6100   21.6081 H   0  0  0  0  0  0  0  0  0  0  0  0
    4.2172    1.6084   20.9648 S   0  0  0  0  0  0  0  0  0  0  0  0
    2.8955    1.3732   20.4262 O   0  0  0  0  0  0  0  0  0  0  0  0
    4.5454    1.1909   22.3030 O   0  0  0  0  0  0  0  0  0  0  0  0
    6.9784    0.3486   18.0222 C   0  0  0  0  0  0  0  0  0  0  0  0
    7.6948   -0.0895   16.9170 C   0  0  0  0  0  0  0  0  0  0  0  0
    9.1066   -0.2491   16.9633 C   0  0  0  0  0  0  0  0  0  0  0  0
    9.7808    0.0460   18.1741 C   0  0  0  0  0  0  0  0  0  0  0  0
    9.0948    0.4797   19.2708 N   0  0  0  0  0  0  0  0  0  0  0  0
    7.7209    0.6349   19.2254 C   0  0  0  0  0  0  0  0  0  0  0  0
    6.8079    1.0823   20.2788 C   0  0  0  0  0  0  0  0  0  0  0  0
    5.4715    1.1101   19.8508 C   0  0  0  0  0  0  0  0  0  0  0  0
    5.3193    0.6127   18.2139 S   0  0  0  0  0  0  0  0  0  0  0  0
    5.5537    7.2885   23.4540 C   0  0  0  0  0  0  0  0  0  0  0  0
    7.5260    8.8620   22.9333 C   0  0  0  0  0  0  0  0  0  0  0  0
    8.8183    9.3588   23.2396 C   0  0  0  0  0  0  0  0  0  0  0  0
    9.5368    8.8712   24.3817 C   0  0  0  0  0  0  0  0  0  0  0  0
    8.9587    7.8549   25.2565 C   0  0  0  0  0  0  0  0  0  0  0  0
    7.6759    7.3452   24.9752 C   0  0  0  0  0  0  0  0  0  0  0  0
    6.9082    7.8669   23.7538 C   0  0  0  0  0  0  0  0  0  0  0  0
   10.8359    9.3790   24.6691 C   0  0  0  0  0  0  0  0  0  0  0  0
   11.5022    8.8665   25.7989 C   0  0  0  0  0  0  0  0  0  0  0  0
   10.9642    7.9089   26.6280 N   0  0  0  0  0  0  0  0  0  0  0  0
    9.7102    7.4019   26.3729 C   0  0  0  0  0  0  0  0  0  0  0  0
    9.2614    6.4708   27.2325 N   0  0  0  0  0  0  0  0  0  0  0  0
    8.3715    6.0700   27.1035 H   0  0  0  0  0  0  0  0  0  0  0  0
    9.8226    6.1899   27.9910 H   0  0  0  0  0  0  0  0  0  0  0  0
  1  2  1  0  0  0  0
  1 21  1  0  0  0  0
  2  6  2  0  0  0  0
  3  7  1  6  0  0  0
  3  2  1  0  0  0  0
  4  5  1  0  0  0  0
  4  3  1  0  0  0  0
  5  1  1  0  0  0  0
  7  8  1  0  0  0  0
  9  7  1  0  0  0  0
  9 11  2  0  0  0  0
 10  9  2  0  0  0  0
 12 20  1  0  0  0  0
 13 12  1  0  0  0  0
 14 13  2  0  0  0  0
 15 16  2  0  0  0  0
 15 14  1  0  0  0  0
 16 17  1  0  0  0  0
 17 18  1  0  0  0  0
 17 12  2  0  0  0  0
 18 19  2  0  0  0  0
 19 20  1  0  0  0  0
 19  9  1  0  0  0  0
 21 27  1  0  0  0  0
 22 23  2  0  0  0  0
 22 27  1  0  0  0  0
 23 24  1  0  0  0  0
 24 28  2  0  0  0  0
 24 25  1  0  0  0  0
 25 31  2  0  0  0  0
 26 25  1  0  0  0  0
 27 26  2  0  0  0  0
 28 29  1  0  0  0  0
 29 30  2  0  0  0  0
 31 30  1  0  0  0  0
 31 32  1  0  0  0  0
 32 33  1  0  0  0  0
 32 34  1  0  0  0  0
M  END
>  <minimizedAffinity>
-11.09488

$$$$
