


 43 46  0  0  0  0  0  0  0  0999 V2000
    5.4779    8.1239   22.1491 C   0  0  0  0  0  0  0  0  0  0  0  0
    4.8212    9.1716   22.5705 F   0  0  0  0  0  0  0  0  0  0  0  0
    5.0953    7.4413   20.9708 C   0  0  0  0  0  0  0  0  0  0  0  0
    5.8639    6.3158   20.5677 C   0  0  0  0  0  0  0  0  0  0  0  0
    5.5737    5.6535   19.4996 F   0  0  0  0  0  0  0  0  0  0  0  0
    6.9630    5.9110   21.3356 C   0  0  0  0  0  0  0  0  0  0  0  0
    7.2687    6.5826   22.4325 N   0  0  0  0  0  0  0  0  0  0  0  0
    6.5895    7.6510   22.8790 C   0  0  0  0  0  0  0  0  0  0  0  0
    4.0153    7.8676   20.2392 N   0  0  0  0  0  0  0  0  0  0  0  0
    4.2218    8.7203   19.0886 C   0  0  0  0  0  0  0  0  0  0  0  0
    2.6608    7.4499   20.6148 C   0  0  0  0  0  0  0  0  0  0  0  0
    1.6871    8.5380   21.0045 C   0  0  0  0  0  0  0  0  0  0  0  0
    0.5245    8.6376   20.5014 O   0  0  0  0  0  0  0  0  0  0  0  0
    2.0446    9.4592   21.9514 O   0  0  0  0  0  0  0  0  0  0  0  0
    2.8933    9.4199   22.3464 H   0  0  0  0  0  0  0  0  0  0  0  0
    6.9901    8.2467   23.9951 O   0  0  0  0  0  0  0  0  0  0  0  0
    8.8566    9.8461   22.6898 O   0  0  0  0  0  0  0  0  0  0  0  0
    8.2508    8.3845   24.4056 C   0  0  0  0  0  0  0  0  0  0  0  0
    8.6282    7.6629   25.5400 C   0  0  0  0  0  0  0  0  0  0  0  0
    9.9440    7.7289   26.0568 C   0  0  0  0  0  0  0  0  0  0  0  0
   10.8890    8.5601   25.3808 C   0  0  0  0  0  0  0  0  0  0  0  0
   10.5141    9.2800   24.2344 C   0  0  0  0  0  0  0  0  0  0  0  0
    9.1899    9.1898   23.7411 C   0  0  0  0  0  0  0  0  0  0  0  0
    9.4886   10.3814   22.2517 H   0  0  0  0  0  0  0  0  0  0  0  0
   10.2747    6.9990   27.1940 C   0  0  0  0  0  0  0  0  0  0  0  0
    9.3653    6.7391   28.1578 N   0  0  0  0  0  0  0  0  0  0  0  0
   11.4784    6.4810   27.3951 N   0  0  0  0  0  0  0  0  0  0  0  0
    8.4492    7.0906   28.0778 H   0  0  0  0  0  0  0  0  0  0  0  0
    9.6183    6.1980   28.9404 H   0  0  0  0  0  0  0  0  0  0  0  0
   12.1941    6.6280   26.7352 H   0  0  0  0  0  0  0  0  0  0  0  0
    7.6700    4.8837   20.9422 O   0  0  0  0  0  0  0  0  0  0  0  0
    7.4079    3.5962   20.7455 C   0  0  0  0  0  0  0  0  0  0  0  0
    6.4171    3.0296   21.5937 C   0  0  0  0  0  0  0  0  0  0  0  0
    6.0726    1.6704   21.4708 C   0  0  0  0  0  0  0  0  0  0  0  0
    6.7232    0.8844   20.5066 C   0  0  0  0  0  0  0  0  0  0  0  0
    7.7146    1.4504   19.6534 C   0  0  0  0  0  0  0  0  0  0  0  0
    8.0422    2.7997   19.7907 C   0  0  0  0  0  0  0  0  0  0  0  0
    8.3500    0.6793   18.6836 C   0  0  0  0  0  0  0  0  0  0  0  0
    7.8563    0.1245   17.5633 N   0  0  0  0  0  0  0  0  0  0  0  0
    6.5267    0.1850   17.0694 C   0  0  0  0  0  0  0  0  0  0  0  0
    9.6567    0.3991   18.8019 N   0  0  0  0  0  0  0  0  0  0  0  0
    8.8741   -0.5781   16.8650 C   0  0  0  0  0  0  0  0  0  0  0  0
   10.1313   -0.3864   17.7382 C   0  0  0  0  0  0  0  0  0  0  0  0
 43 42  2  0  0  0
 43 41  1  0  0  0
 42 39  1  0  0  0
 41 38  2  0  0  0
 39 38  1  0  0  0
 39 40  1  0  0  0
 38 36  1  0  0  0
 36 37  1  0  0  0
 36 35  2  0  0  0
 37 32  2  0  0  0
  5  4  1  0  0  0
 10  9  1  0  0  0
 35 34  1  0  0  0
 32 31  1  0  0  0
 32 33  1  0  0  0
  9 11  1  0  0  0
  9  3  1  0  0  0
  4  3  2  0  0  0
  4  6  1  0  0  0
 31  6  1  0  0  0
 11 12  1  0  0  0
 34 33  2  0  0  0
  3  1  1  0  0  0
  6  7  2  0  0  0
  7  8  2  0  0  0
  1  8  1  0  0  0
  1  2  1  0  0  0
 12 13  2  0  0  0
 12 14  1  0  0  0
 17 23  1  0  0  0
  8 16  1  0  0  0
 23 22  1  0  0  0
 23 18  2  0  0  0
 16 18  1  0  0  0
 22 21  2  0  0  0
 18 19  1  0  0  0
 21 20  1  0  0  0
 19 20  2  0  0  0
 20 25  1  0  0  0
 25 27  2  0  0  0
 25 26  1  0  0  0
 17 24  1  0  0  0
 26 28  1  0  0  0
 26 29  1  0  0  0
 27 30  1  0  0  0
 14 15  1  0  0  0
M  END
> <minimizedAffinity>
-12.40813

$$$$



 43 46  0  0  0  0  0  0  0  0999 V2000
    5.1474    5.2157   21.0016 C   0  0  0  0  0  0  0  0  0  0  0  0
    4.4318    6.2806   21.2467 F   0  0  0  0  0  0  0  0  0  0  0  0
    4.6713    3.9214   21.3160 C   0  0  0  0  0  0  0  0  0  0  0  0
    5.5010    2.8085   21.0104 C   0  0  0  0  0  0  0  0  0  0  0  0
    5.1238    1.6015   21.2642 F   0  0  0  0  0  0  0  0  0  0  0  0
    6.7532    3.0144   20.4181 C   0  0  0  0  0  0  0  0  0  0  0  0
    7.1495    4.2477   20.1544 N   0  0  0  0  0  0  0  0  0  0  0  0
    6.4253    5.3472   20.4169 C   0  0  0  0  0  0  0  0  0  0  0  0
    3.4369    3.7551   21.8922 N   0  0  0  0  0  0  0  0  0  0  0  0
    2.2833    3.5090   21.0542 C   0  0  0  0  0  0  0  0  0  0  0  0
    3.2912    3.8135   23.3500 C   0  0  0  0  0  0  0  0  0  0  0  0
    2.6012    2.6483   24.0210 C   0  0  0  0  0  0  0  0  0  0  0  0
    3.0845    1.4732   24.0338 O   0  0  0  0  0  0  0  0  0  0  0  0
    1.4095    2.8462   24.6642 O   0  0  0  0  0  0  0  0  0  0  0  0
    1.0201    3.6983   24.6775 H   0  0  0  0  0  0  0  0  0  0  0  0
    6.9266    6.5362   20.1069 O   0  0  0  0  0  0  0  0  0  0  0  0
    8.6842    8.4582   19.1259 O   0  0  0  0  0  0  0  0  0  0  0  0
    7.6909    7.2973   20.8902 C   0  0  0  0  0  0  0  0  0  0  0  0
    7.5953    7.0828   22.2668 C   0  0  0  0  0  0  0  0  0  0  0  0
    8.3676    7.8288   23.1886 C   0  0  0  0  0  0  0  0  0  0  0  0
    9.2595    8.8173   22.6708 C   0  0  0  0  0  0  0  0  0  0  0  0
    9.3638    9.0288   21.2861 C   0  0  0  0  0  0  0  0  0  0  0  0
    8.5790    8.2632   20.3900 C   0  0  0  0  0  0  0  0  0  0  0  0
    9.2789    9.1045   18.7995 H   0  0  0  0  0  0  0  0  0  0  0  0
    8.2353    7.5874   24.5522 C   0  0  0  0  0  0  0  0  0  0  0  0
    8.9960    8.2326   25.4625 N   0  0  0  0  0  0  0  0  0  0  0  0
    7.3411    6.7467   25.0536 N   0  0  0  0  0  0  0  0  0  0  0  0
    9.6821    8.8731   25.1655 H   0  0  0  0  0  0  0  0  0  0  0  0
    8.8645    8.0625   26.4233 H   0  0  0  0  0  0  0  0  0  0  0  0
    6.7500    6.2398   24.4511 H   0  0  0  0  0  0  0  0  0  0  0  0
    7.4975    1.9792   20.1278 O   0  0  0  0  0  0  0  0  0  0  0  0
    7.6776    1.2409   19.0380 C   0  0  0  0  0  0  0  0  0  0  0  0
    6.6495    1.3216   18.0588 C   0  0  0  0  0  0  0  0  0  0  0  0
    6.7419    0.5715   16.8713 C   0  0  0  0  0  0  0  0  0  0  0  0
    7.8564   -0.2584   16.6716 C   0  0  0  0  0  0  0  0  0  0  0  0
    8.8895   -0.3391   17.6501 C   0  0  0  0  0  0  0  0  0  0  0  0
    8.7796    0.4123   18.8206 C   0  0  0  0  0  0  0  0  0  0  0  0
   10.0055   -1.1471   17.4487 C   0  0  0  0  0  0  0  0  0  0  0  0
   10.1722   -2.1981   16.6276 N   0  0  0  0  0  0  0  0  0  0  0  0
    9.2289   -2.7672   15.7321 C   0  0  0  0  0  0  0  0  0  0  0  0
   11.1342   -0.9120   18.1348 N   0  0  0  0  0  0  0  0  0  0  0  0
   11.4871   -2.7210   16.7484 C   0  0  0  0  0  0  0  0  0  0  0  0
   12.1551   -1.8201   17.8076 C   0  0  0  0  0  0  0  0  0  0  0  0
 43 42  2  0  0  0
 43 41  1  0  0  0
 42 39  1  0  0  0
 41 38  2  0  0  0
 39 38  1  0  0  0
 39 40  1  0  0  0
 38 36  1  0  0  0
 36 37  1  0  0  0
 36 35  2  0  0  0
 37 32  2  0  0  0
  5  4  1  0  0  0
 10  9  1  0  0  0
 35 34  1  0  0  0
 32 31  1  0  0  0
 32 33  1  0  0  0
  9 11  1  0  0  0
  9  3  1  0  0  0
  4  3  2  0  0  0
  4  6  1  0  0  0
 31  6  1  0  0  0
 11 12  1  0  0  0
 34 33  2  0  0  0
  3  1  1  0  0  0
  6  7  2  0  0  0
  7  8  2  0  0  0
  1  8  1  0  0  0
  1  2  1  0  0  0
 12 13  2  0  0  0
 12 14  1  0  0  0
 17 23  1  0  0  0
  8 16  1  0  0  0
 23 22  1  0  0  0
 23 18  2  0  0  0
 16 18  1  0  0  0
 22 21  2  0  0  0
 18 19  1  0  0  0
 21 20  1  0  0  0
 19 20  2  0  0  0
 20 25  1  0  0  0
 25 27  2  0  0  0
 25 26  1  0  0  0
 17 24  1  0  0  0
 26 28  1  0  0  0
 26 29  1  0  0  0
 27 30  1  0  0  0
 14 15  1  0  0  0
M  END
> <minimizedAffinity>
-11.62140

$$$$



 43 46  0  0  0  0  0  0  0  0999 V2000
    5.1418    4.8746   20.9688 C   0  0  0  0  0  0  0  0  0  0  0  0
    4.3376    5.8762   21.2062 F   0  0  0  0  0  0  0  0  0  0  0  0
    4.7751    3.5460   21.2863 C   0  0  0  0  0  0  0  0  0  0  0  0
    5.6972    2.5060   20.9890 C   0  0  0  0  0  0  0  0  0  0  0  0
    5.4221    1.2723   21.2461 F   0  0  0  0  0  0  0  0  0  0  0  0
    6.9304    2.8147   20.4015 C   0  0  0  0  0  0  0  0  0  0  0  0
    7.2225    4.0761   20.1345 N   0  0  0  0  0  0  0  0  0  0  0  0
    6.4068    5.1114   20.3892 C   0  0  0  0  0  0  0  0  0  0  0  0
    3.5564    3.2781   21.8576 N   0  0  0  0  0  0  0  0  0  0  0  0
    2.4477    2.8719   21.0213 C   0  0  0  0  0  0  0  0  0  0  0  0
    3.3834    3.3906   23.3094 C   0  0  0  0  0  0  0  0  0  0  0  0
    2.5992    2.2967   23.9968 C   0  0  0  0  0  0  0  0  0  0  0  0
    3.0326    1.1086   24.1197 O   0  0  0  0  0  0  0  0  0  0  0  0
    1.3721    2.5782   24.5335 O   0  0  0  0  0  0  0  0  0  0  0  0
    1.0174    3.4426   24.4639 H   0  0  0  0  0  0  0  0  0  0  0  0
    6.8074    6.3373   20.0766 O   0  0  0  0  0  0  0  0  0  0  0  0
    8.4933    8.2872   19.0273 O   0  0  0  0  0  0  0  0  0  0  0  0
    7.5624    7.1356   20.8313 C   0  0  0  0  0  0  0  0  0  0  0  0
    7.4955    6.9471   22.2133 C   0  0  0  0  0  0  0  0  0  0  0  0
    8.2613    7.7334   23.1066 C   0  0  0  0  0  0  0  0  0  0  0  0
    9.1162    8.7357   22.5539 C   0  0  0  0  0  0  0  0  0  0  0  0
    9.1917    8.9213   21.1636 C   0  0  0  0  0  0  0  0  0  0  0  0
    8.4144    8.1156   20.2967 C   0  0  0  0  0  0  0  0  0  0  0  0
    9.0639    8.9431   18.6778 H   0  0  0  0  0  0  0  0  0  0  0  0
    8.1583    7.5167   24.4769 C   0  0  0  0  0  0  0  0  0  0  0  0
    7.1899    6.7334   24.9990 N   0  0  0  0  0  0  0  0  0  0  0  0
    9.0118    8.0249   25.3549 N   0  0  0  0  0  0  0  0  0  0  0  0
    6.5191    6.3205   24.4085 H   0  0  0  0  0  0  0  0  0  0  0  0
    7.1548    6.5753   25.9701 H   0  0  0  0  0  0  0  0  0  0  0  0
    9.7452    8.6060   25.0488 H   0  0  0  0  0  0  0  0  0  0  0  0
    7.7608    1.8449   20.1188 O   0  0  0  0  0  0  0  0  0  0  0  0
    8.0006    1.1133   19.0360 C   0  0  0  0  0  0  0  0  0  0  0  0
    9.3246    0.6100   18.9098 C   0  0  0  0  0  0  0  0  0  0  0  0
    9.6825   -0.1698   17.7939 C   0  0  0  0  0  0  0  0  0  0  0  0
    8.7187   -0.4371   16.8088 C   0  0  0  0  0  0  0  0  0  0  0  0
    7.3903    0.0638   16.9342 C   0  0  0  0  0  0  0  0  0  0  0  0
    7.0550    0.8348   18.0477 C   0  0  0  0  0  0  0  0  0  0  0  0
    6.4260   -0.2135   15.9687 C   0  0  0  0  0  0  0  0  0  0  0  0
    5.9227    0.5731   15.0020 N   0  0  0  0  0  0  0  0  0  0  0  0
    6.2547    1.9222   14.7102 C   0  0  0  0  0  0  0  0  0  0  0  0
    5.8595   -1.4285   15.9187 N   0  0  0  0  0  0  0  0  0  0  0  0
    4.9554   -0.1330   14.2385 C   0  0  0  0  0  0  0  0  0  0  0  0
    4.9118   -1.5321   14.8868 C   0  0  0  0  0  0  0  0  0  0  0  0
 43 42  2  0  0  0
 43 41  1  0  0  0
 42 39  1  0  0  0
 41 38  2  0  0  0
 39 38  1  0  0  0
 39 40  1  0  0  0
 38 36  1  0  0  0
 36 37  1  0  0  0
 36 35  2  0  0  0
 37 32  2  0  0  0
  5  4  1  0  0  0
 10  9  1  0  0  0
 35 34  1  0  0  0
 32 31  1  0  0  0
 32 33  1  0  0  0
  9 11  1  0  0  0
  9  3  1  0  0  0
  4  3  2  0  0  0
  4  6  1  0  0  0
 31  6  1  0  0  0
 11 12  1  0  0  0
 34 33  2  0  0  0
  3  1  1  0  0  0
  6  7  2  0  0  0
  7  8  2  0  0  0
  1  8  1  0  0  0
  1  2  1  0  0  0
 12 13  2  0  0  0
 12 14  1  0  0  0
 17 23  1  0  0  0
  8 16  1  0  0  0
 23 22  1  0  0  0
 23 18  2  0  0  0
 16 18  1  0  0  0
 22 21  2  0  0  0
 18 19  1  0  0  0
 21 20  1  0  0  0
 19 20  2  0  0  0
 20 25  1  0  0  0
 25 27  2  0  0  0
 25 26  1  0  0  0
 17 24  1  0  0  0
 26 28  1  0  0  0
 26 29  1  0  0  0
 27 30  1  0  0  0
 14 15  1  0  0  0
M  END
> <minimizedAffinity>
-11.56167

$$$$
