
 OpenBabel07192215303D

 43 46  0  0  0  0  0  0  0  0999 V2000
    5.1474    5.2157   21.0016 C   0  0  2  0  0  0  0  0  0  0  0  0
    4.4318    6.2806   21.2467 F   0  0  0  0  0  0  0  0  0  0  0  0
    4.6713    3.9214   21.3160 C   0  0  0  0  0  0  0  0  0  0  0  0
    5.5010    2.8085   21.0104 C   0  0  0  0  0  0  0  0  0  0  0  0
    5.1238    1.6015   21.2642 F   0  0  0  0  0  0  0  0  0  0  0  0
    6.7532    3.0144   20.4181 C   0  0  0  0  0  0  0  0  0  0  0  0
    7.1495    4.2477   20.1544 N   0  0  0  0  0  0  0  0  0  0  0  0
    6.4253    5.3472   20.4169 C   0  0  0  0  0  0  0  0  0  0  0  0
    3.4369    3.7551   21.8922 N   0  0  0  0  0  0  0  0  0  0  0  0
    2.2833    3.5090   21.0542 C   0  0  0  0  0  0  0  0  0  0  0  0
    3.2912    3.8135   23.3500 C   0  0  0  0  0  0  0  0  0  0  0  0
    2.6012    2.6483   24.0210 C   0  0  0  0  0  0  0  0  0  0  0  0
    3.0845    1.4732   24.0338 O   0  0  0  0  0  0  0  0  0  0  0  0
    1.4095    2.8462   24.6642 O   0  0  0  0  0  0  0  0  0  0  0  0
    1.0201    3.6983   24.6775 H   0  0  0  0  0  0  0  0  0  0  0  0
    6.9266    6.5362   20.1069 O   0  0  0  0  0  0  0  0  0  0  0  0
    8.6842    8.4582   19.1259 O   0  0  0  0  0  0  0  0  0  0  0  0
    7.6909    7.2973   20.8902 C   0  0  0  0  0  0  0  0  0  0  0  0
    7.5953    7.0828   22.2668 C   0  0  0  0  0  0  0  0  0  0  0  0
    8.3676    7.8288   23.1886 C   0  0  0  0  0  0  0  0  0  0  0  0
    9.2595    8.8173   22.6708 C   0  0  0  0  0  0  0  0  0  0  0  0
    9.3638    9.0288   21.2861 C   0  0  0  0  0  0  0  0  0  0  0  0
    8.5790    8.2632   20.3900 C   0  0  0  0  0  0  0  0  0  0  0  0
    9.2789    9.1045   18.7995 H   0  0  0  0  0  0  0  0  0  0  0  0
    8.2353    7.5874   24.5522 C   0  0  0  0  0  0  0  0  0  0  0  0
    8.9960    8.2326   25.4625 N   0  0  0  0  0  0  0  0  0  0  0  0
    7.3411    6.7467   25.0536 N   0  0  0  0  0  0  0  0  0  0  0  0
    9.6821    8.8731   25.1655 H   0  0  0  0  0  0  0  0  0  0  0  0
    8.8645    8.0625   26.4233 H   0  0  0  0  0  0  0  0  0  0  0  0
    6.7500    6.2398   24.4511 H   0  0  0  0  0  0  0  0  0  0  0  0
    7.4975    1.9792   20.1278 O   0  0  0  0  0  0  0  0  0  0  0  0
    7.6776    1.2409   19.0380 C   0  0  0  0  0  0  0  0  0  0  0  0
    6.6495    1.3216   18.0588 C   0  0  0  0  0  0  0  0  0  0  0  0
    6.7419    0.5715   16.8713 C   0  0  0  0  0  0  0  0  0  0  0  0
    7.8564   -0.2584   16.6716 C   0  0  0  0  0  0  0  0  0  0  0  0
    8.8895   -0.3391   17.6501 C   0  0  0  0  0  0  0  0  0  0  0  0
    8.7796    0.4123   18.8206 C   0  0  0  0  0  0  0  0  0  0  0  0
   10.0055   -1.1471   17.4487 C   0  0  0  0  0  0  0  0  0  0  0  0
   10.1722   -2.1981   16.6276 N   0  0  0  0  0  0  0  0  0  0  0  0
    9.2289   -2.7672   15.7321 C   0  0  0  0  0  0  0  0  0  0  0  0
   11.1342   -0.9120   18.1348 N   0  0  0  0  0  0  0  0  0  0  0  0
   11.4871   -2.7210   16.7484 C   0  0  0  0  0  0  0  0  0  0  0  0
   12.1551   -1.8201   17.8076 C   0  0  0  0  0  0  0  0  0  0  0  0
  1  8  1  0  0  0  0
  1  2  1  1  0  0  0
  3  1  1  0  0  0  0
  4  3  2  0  0  0  0
  4  6  1  0  0  0  0
  5  4  1  0  0  0  0
  6  7  2  0  0  0  0
  7  8  2  0  0  0  0
  8 16  1  0  0  0  0
  9 11  1  0  0  0  0
  9  3  1  0  0  0  0
 10  9  1  0  0  0  0
 11 12  1  0  0  0  0
 12 13  2  0  0  0  0
 12 14  1  0  0  0  0
 14 15  1  0  0  0  0
 16 18  1  0  0  0  0
 17 23  1  0  0  0  0
 17 24  1  0  0  0  0
 18 19  1  0  0  0  0
 19 20  2  0  0  0  0
 20 25  1  0  0  0  0
 21 20  1  0  0  0  0
 22 21  2  0  0  0  0
 23 22  1  0  0  0  0
 23 18  2  0  0  0  0
 25 27  2  0  0  0  0
 25 26  1  0  0  0  0
 26 28  1  0  0  0  0
 26 29  1  0  0  0  0
 27 30  1  0  0  0  0
 31  6  1  0  0  0  0
 32 31  1  0  0  0  0
 32 33  1  0  0  0  0
 34 33  2  0  0  0  0
 35 34  1  0  0  0  0
 36 37  1  0  0  0  0
 36 35  2  0  0  0  0
 37 32  2  0  0  0  0
 38 36  1  0  0  0  0
 39 38  1  0  0  0  0
 39 40  1  0  0  0  0
 41 38  2  0  0  0  0
 42 39  1  0  0  0  0
 43 42  2  0  0  0  0
 43 41  1  0  0  0  0
M  END
>  <minimizedAffinity>
-11.62140

$$$$
