
 OpenBabel07192215303D

 43 47  0  0  0  0  0  0  0  0999 V2000
    2.5147    5.0422   23.2906 C   0  0  1  0  0  0  0  0  0  0  0  0
    3.5636    6.0743   23.7795 C   0  0  0  0  0  0  0  0  0  0  0  0
    4.7197    5.6555   23.7548 O   0  0  0  0  0  0  0  0  0  0  0  0
    3.3238    7.4290   23.6884 N   0  0  0  0  0  0  0  0  0  0  0  0
    3.8088    8.3651   24.7710 C   0  0  0  0  0  0  0  0  0  0  0  0
    2.6853    8.6397   25.7848 C   0  0  0  0  0  0  0  0  0  0  0  0
    1.2590    9.3698   24.9397 S   0  0  0  0  0  0  0  0  0  0  0  0
    1.5825   10.6935   24.1551 O   0  0  0  0  0  0  0  0  0  0  0  0
    0.0787    9.6447   25.9504 O   0  0  0  0  0  0  0  0  0  0  0  0
    2.1637    7.9366   22.8774 C   0  0  0  0  0  0  0  0  0  0  0  0
    0.9106    8.0659   23.7631 C   0  0  0  0  0  0  0  0  0  0  0  0
    2.8806    4.4541   21.9621 N   0  0  0  0  0  0  0  0  0  0  0  0
    3.8417    4.7378   21.7721 H   0  0  0  0  0  0  0  0  0  0  0  0
    2.0876    4.7850   20.7403 C   0  0  0  0  0  0  0  0  0  0  0  0
    4.6057    3.8508   17.0797 N   0  0  0  0  0  0  0  0  0  0  0  0
    5.2254    4.3171   18.3774 C   0  0  0  0  0  0  0  0  0  0  0  0
    3.1449    3.4835   17.1644 C   0  0  0  0  0  0  0  0  0  0  0  0
    2.9008    4.6880   19.4279 C   0  0  0  0  0  0  0  0  0  0  0  0
    4.3891    4.4036   19.6761 C   0  0  0  0  0  0  0  0  0  0  0  0
    2.3677    3.5986   18.4961 C   0  0  0  0  0  0  0  0  0  0  0  0
    6.4066    2.4762   14.0151 C   0  0  0  0  0  0  0  0  0  0  0  0
    5.3678    3.7603   15.7995 C   0  0  0  0  0  0  0  0  0  0  0  0
    5.6900    2.5115   15.2208 C   0  0  0  0  0  0  0  0  0  0  0  0
    5.7965    4.9187   15.1070 C   0  0  0  0  0  0  0  0  0  0  0  0
    6.7857    3.5889   13.4083 N   0  0  0  0  0  0  0  0  0  0  0  0
    6.5078    4.7812   13.9081 C   0  0  0  0  0  0  0  0  0  0  0  0
    2.1519    3.9727   24.3238 C   0  0  0  0  0  0  0  0  0  0  0  0
    3.0117    2.8070   24.2456 N   0  0  0  0  0  0  0  0  0  0  0  0
    3.2799    2.5658   25.1997 H   0  0  0  0  0  0  0  0  0  0  0  0
    2.3999    1.3977   23.5257 S   0  0  0  0  0  0  0  0  0  0  0  0
    0.8532    1.5303   23.2347 O   0  0  0  0  0  0  0  0  0  0  0  0
    2.6330    0.2096   24.5513 O   0  0  0  0  0  0  0  0  0  0  0  0
    4.6790    1.3999   22.0437 C   0  0  0  0  0  0  0  0  0  0  0  0
    3.3107    1.1388   22.0439 C   0  0  0  0  0  0  0  0  0  0  0  0
    4.7513    0.7286   19.6774 C   0  0  0  0  0  0  0  0  0  0  0  0
    3.3775    0.4730   19.7058 C   0  0  0  0  0  0  0  0  0  0  0  0
    2.6492    0.6767   20.8859 C   0  0  0  0  0  0  0  0  0  0  0  0
    5.4164    1.2044   20.8805 C   0  0  0  0  0  0  0  0  0  0  0  0
    6.7845    1.4641   20.8648 C   0  0  0  0  0  0  0  0  0  0  0  0
    5.5004    0.5396   18.5248 C   0  0  0  0  0  0  0  0  0  0  0  0
    7.5110    1.2708   19.7020 C   0  0  0  0  0  0  0  0  0  0  0  0
    6.8768    0.8146   18.5463 C   0  0  0  0  0  0  0  0  0  0  0  0
    7.8255    0.5787   17.1018 Cl  0  0  0  0  0  0  0  0  0  0  0  0
  1 27  1  1  0  0  0
  2  1  1  0  0  0  0
  2  3  2  0  0  0  0
  4  5  1  0  0  0  0
  4  2  1  0  0  0  0
  6  5  1  0  0  0  0
  7 11  1  0  0  0  0
  7  6  1  0  0  0  0
  8  7  2  0  0  0  0
  9  7  2  0  0  0  0
 10  4  1  0  0  0  0
 11 10  1  0  0  0  0
 12 14  1  0  0  0  0
 12  1  1  0  0  0  0
 12 13  1  0  0  0  0
 15 17  1  0  0  0  0
 16 15  1  0  0  0  0
 16 19  1  0  0  0  0
 17 20  1  0  0  0  0
 18 14  1  0  0  0  0
 19 18  1  0  0  0  0
 20 18  1  0  0  0  0
 21 23  1  0  0  0  0
 22 23  2  0  0  0  0
 22 15  1  0  0  0  0
 24 22  1  0  0  0  0
 25 21  2  0  0  0  0
 26 25  1  0  0  0  0
 26 24  2  0  0  0  0
 27 28  1  0  0  0  0
 28 30  1  0  0  0  0
 28 29  1  0  0  0  0
 30 34  1  0  0  0  0
 30 32  2  0  0  0  0
 30 31  2  0  0  0  0
 33 38  1  0  0  0  0
 34 33  2  0  0  0  0
 35 40  2  0  0  0  0
 35 38  1  0  0  0  0
 36 35  1  0  0  0  0
 37 36  2  0  0  0  0
 37 34  1  0  0  0  0
 38 39  2  0  0  0  0
 39 41  1  0  0  0  0
 40 42  1  0  0  0  0
 42 43  1  0  0  0  0
 42 41  2  0  0  0  0
M  END
>  <minimizedAffinity>
-10.98801

$$$$
