


 36 40  0  0  0  0  0  0  0  0999 V2000
    8.1939    6.2159   20.7413 N   0  0  0  0  0  0  0  0  0  0  0  0
    7.4223    7.3255   21.1047 C   0  0  0  0  0  0  0  0  0  0  0  0
    6.1185    7.1495   21.5981 N   0  0  0  0  0  0  0  0  0  0  0  0
    6.0638    5.7636   21.5410 C   0  0  0  0  0  0  0  0  0  0  0  0
    7.2978    5.2121   21.0305 C   0  0  0  0  0  0  0  0  0  0  0  0
    4.9873    4.8916   21.9041 C   0  0  0  0  0  0  0  0  0  0  0  0
    5.1541    3.5086   21.7648 C   0  0  0  0  0  0  0  0  0  0  0  0
    6.3668    2.9527   21.2640 C   0  0  0  0  0  0  0  0  0  0  0  0
    7.4491    3.7977   20.8919 C   0  0  0  0  0  0  0  0  0  0  0  0
    5.0994    8.1374   22.0503 C   0  0  0  0  0  0  0  0  0  0  0  0
    8.0295    8.7330   20.9551 C   0  0  0  0  0  0  0  0  0  0  0  0
    8.3982    9.4265   22.2082 N   0  0  0  0  0  0  0  0  0  0  0  0
    8.3501   10.4097   22.1924 H   0  0  0  0  0  0  0  0  0  0  0  0
    9.7018    7.6620   25.9176 C   0  0  0  0  0  0  0  0  0  0  0  0
    8.4119    7.3666   25.3650 C   0  0  0  0  0  0  0  0  0  0  0  0
    7.9827    7.9400   24.1573 C   0  0  0  0  0  0  0  0  0  0  0  0
    8.8189    8.8295   23.4473 C   0  0  0  0  0  0  0  0  0  0  0  0
   10.0946    9.1481   23.9555 C   0  0  0  0  0  0  0  0  0  0  0  0
   10.5352    8.5751   25.1727 C   0  0  0  0  0  0  0  0  0  0  0  0
    9.3359    6.8857   28.1528 N   0  0  0  0  0  0  0  0  0  0  0  0
   11.3305    6.6222   27.3498 N   0  0  0  0  0  0  0  0  0  0  0  0
   10.1209    7.0865   27.1198 C   0  0  0  0  0  0  0  0  0  0  0  0
    8.3977    7.1826   28.1232 H   0  0  0  0  0  0  0  0  0  0  0  0
    9.6854    6.4381   28.9570 H   0  0  0  0  0  0  0  0  0  0  0  0
   12.0284    6.7036   26.6602 H   0  0  0  0  0  0  0  0  0  0  0  0
    6.4868    1.4218   21.1411 C   0  0  0  0  0  0  0  0  0  0  0  0
    6.4880    0.9181   19.7194 N   0  0  0  0  0  0  0  0  0  0  0  0
    5.4456    0.6930   18.7892 C   0  0  0  0  0  0  0  0  0  0  0  0
    5.7008    0.2147   17.5050 N   0  0  0  0  0  0  0  0  0  0  0  0
    7.0737    0.1122   17.5973 C   0  0  0  0  0  0  0  0  0  0  0  0
    7.5466    0.5232   18.9040 C   0  0  0  0  0  0  0  0  0  0  0  0
    8.0017   -0.3296   16.5996 C   0  0  0  0  0  0  0  0  0  0  0  0
    9.3781   -0.3529   16.9094 C   0  0  0  0  0  0  0  0  0  0  0  0
    9.8477    0.0485   18.1838 C   0  0  0  0  0  0  0  0  0  0  0  0
    8.9548    0.4900   19.1854 C   0  0  0  0  0  0  0  0  0  0  0  0
    3.9936    0.9677   19.1502 C   0  0  0  0  0  0  0  0  0  0  0  0
 32 30  2  0  0  0
 32 33  1  0  0  0
 29 30  1  0  0  0
 29 28  2  0  0  0
 30 31  1  0  0  0
 33 34  2  0  0  0
 36 28  1  0  0  0
 28 27  1  0  0  0
 31 27  1  0  0  0
 31 35  2  0  0  0
 34 35  1  0  0  0
 27 26  1  0  0  0
  7  6  1  0  0  0
  7  8  2  0  0  0
  6  4  2  0  0  0
 10  3  1  0  0  0
 26  8  1  0  0  0
  8  9  1  0  0  0
  4  3  1  0  0  0
  4  5  1  0  0  0
  3  2  1  0  0  0
  9  5  2  0  0  0
  5  1  1  0  0  0
  2  1  2  0  0  0
  2 11  1  0  0  0
 11 12  1  0  0  0
 12 17  1  0  0  0
 17 18  2  0  0  0
 17 16  1  0  0  0
 18 19  1  0  0  0
 16 15  2  0  0  0
 19 14  2  0  0  0
 15 14  1  0  0  0
 14 22  1  0  0  0
 22 21  2  0  0  0
 22 20  1  0  0  0
 20 23  1  0  0  0
 20 24  1  0  0  0
 21 25  1  0  0  0
 12 13  1  0  0  0
M  END
> <minimizedAffinity>
-12.79951

$$$$



 36 40  0  0  0  0  0  0  0  0999 V2000
    8.7010    6.5904   21.3122 N   0  0  0  0  0  0  0  0  0  0  0  0
    8.1087    7.7689   20.8443 C   0  0  0  0  0  0  0  0  0  0  0  0
    6.8421    7.7316   20.2373 N   0  0  0  0  0  0  0  0  0  0  0  0
    6.6078    6.3670   20.3374 C   0  0  0  0  0  0  0  0  0  0  0  0
    7.7145    5.6918   20.9754 C   0  0  0  0  0  0  0  0  0  0  0  0
    5.4688    5.6168   19.9003 C   0  0  0  0  0  0  0  0  0  0  0  0
    5.4440    4.2325   20.1081 C   0  0  0  0  0  0  0  0  0  0  0  0
    6.5285    3.5557   20.7373 C   0  0  0  0  0  0  0  0  0  0  0  0
    7.6732    4.2773   21.1762 C   0  0  0  0  0  0  0  0  0  0  0  0
    5.9976    8.8157   19.6624 C   0  0  0  0  0  0  0  0  0  0  0  0
    8.8690    9.0982   21.0099 C   0  0  0  0  0  0  0  0  0  0  0  0
    8.8639    9.6943   22.3633 N   0  0  0  0  0  0  0  0  0  0  0  0
    8.6017   10.6415   22.4212 H   0  0  0  0  0  0  0  0  0  0  0  0
    9.8188    7.7449   26.0863 C   0  0  0  0  0  0  0  0  0  0  0  0
   10.8083    8.4836   25.3570 C   0  0  0  0  0  0  0  0  0  0  0  0
   10.5019    9.1194   24.1432 C   0  0  0  0  0  0  0  0  0  0  0  0
    9.1982    9.0492   23.6046 C   0  0  0  0  0  0  0  0  0  0  0  0
    8.1954    8.3325   24.2887 C   0  0  0  0  0  0  0  0  0  0  0  0
    8.4956    7.6880   25.5128 C   0  0  0  0  0  0  0  0  0  0  0  0
   11.3489    7.0164   27.7777 N   0  0  0  0  0  0  0  0  0  0  0  0
    9.2517    6.5975   28.1227 N   0  0  0  0  0  0  0  0  0  0  0  0
   10.1326    7.1157   27.2937 C   0  0  0  0  0  0  0  0  0  0  0  0
   12.1133    7.3635   27.2634 H   0  0  0  0  0  0  0  0  0  0  0  0
   11.4967    6.5948   28.6550 H   0  0  0  0  0  0  0  0  0  0  0  0
    8.2951    6.6015   27.8901 H   0  0  0  0  0  0  0  0  0  0  0  0
    6.4348    2.0315   20.9406 C   0  0  0  0  0  0  0  0  0  0  0  0
    6.4552    1.2385   19.6578 N   0  0  0  0  0  0  0  0  0  0  0  0
    5.4205    0.7459   18.8276 C   0  0  0  0  0  0  0  0  0  0  0  0
    5.6940    0.0252   17.6662 N   0  0  0  0  0  0  0  0  0  0  0  0
    7.0719    0.0443   17.7370 C   0  0  0  0  0  0  0  0  0  0  0  0
    7.5297    0.7568   18.9129 C   0  0  0  0  0  0  0  0  0  0  0  0
    8.0173   -0.5312   16.8277 C   0  0  0  0  0  0  0  0  0  0  0  0
    9.3956   -0.3885   17.0943 C   0  0  0  0  0  0  0  0  0  0  0  0
    9.8504    0.3076   18.2407 C   0  0  0  0  0  0  0  0  0  0  0  0
    8.9401    0.8862   19.1528 C   0  0  0  0  0  0  0  0  0  0  0  0
    3.9567    0.9853   19.1656 C   0  0  0  0  0  0  0  0  0  0  0  0
 32 30  2  0  0  0
 32 33  1  0  0  0
 29 30  1  0  0  0
 29 28  2  0  0  0
 30 31  1  0  0  0
 33 34  2  0  0  0
 36 28  1  0  0  0
 28 27  1  0  0  0
 31 27  1  0  0  0
 31 35  2  0  0  0
 34 35  1  0  0  0
 27 26  1  0  0  0
  7  6  1  0  0  0
  7  8  2  0  0  0
  6  4  2  0  0  0
 10  3  1  0  0  0
 26  8  1  0  0  0
  8  9  1  0  0  0
  4  3  1  0  0  0
  4  5  1  0  0  0
  3  2  1  0  0  0
  9  5  2  0  0  0
  5  1  1  0  0  0
  2  1  2  0  0  0
  2 11  1  0  0  0
 11 12  1  0  0  0
 12 17  1  0  0  0
 17 18  2  0  0  0
 17 16  1  0  0  0
 18 19  1  0  0  0
 16 15  2  0  0  0
 19 14  2  0  0  0
 15 14  1  0  0  0
 14 22  1  0  0  0
 22 21  2  0  0  0
 22 20  1  0  0  0
 20 23  1  0  0  0
 20 24  1  0  0  0
 21 25  1  0  0  0
 12 13  1  0  0  0
M  END
> <minimizedAffinity>
-12.43330

$$$$



 36 40  0  0  0  0  0  0  0  0999 V2000
    8.0312    6.2712   20.6099 N   0  0  0  0  0  0  0  0  0  0  0  0
    7.1253    7.2587   21.0135 C   0  0  0  0  0  0  0  0  0  0  0  0
    5.8510    6.8998   21.4843 N   0  0  0  0  0  0  0  0  0  0  0  0
    5.9699    5.5219   21.3654 C   0  0  0  0  0  0  0  0  0  0  0  0
    7.2658    5.1518   20.8447 C   0  0  0  0  0  0  0  0  0  0  0  0
    5.0086    4.5072   21.6779 C   0  0  0  0  0  0  0  0  0  0  0  0
    5.3474    3.1634   21.4794 C   0  0  0  0  0  0  0  0  0  0  0  0
    6.6226    2.7859   20.9679 C   0  0  0  0  0  0  0  0  0  0  0  0
    7.5930    3.7749   20.6453 C   0  0  0  0  0  0  0  0  0  0  0  0
    4.7142    7.7318   21.9686 C   0  0  0  0  0  0  0  0  0  0  0  0
    7.5530    8.7361   20.9330 C   0  0  0  0  0  0  0  0  0  0  0  0
    7.8181    9.4149   22.2198 N   0  0  0  0  0  0  0  0  0  0  0  0
    7.5833   10.3700   22.2651 H   0  0  0  0  0  0  0  0  0  0  0  0
    9.4581    7.6671   25.8015 C   0  0  0  0  0  0  0  0  0  0  0  0
   10.2152    8.5930   25.0103 C   0  0  0  0  0  0  0  0  0  0  0  0
    9.6852    9.1641   23.8422 C   0  0  0  0  0  0  0  0  0  0  0  0
    8.3794    8.8400   23.4128 C   0  0  0  0  0  0  0  0  0  0  0  0
    7.6010    7.9334   24.1606 C   0  0  0  0  0  0  0  0  0  0  0  0
    8.1275    7.3524   25.3392 C   0  0  0  0  0  0  0  0  0  0  0  0
   11.2393    6.7078   27.0821 N   0  0  0  0  0  0  0  0  0  0  0  0
    9.3403    6.9529   28.0952 N   0  0  0  0  0  0  0  0  0  0  0  0
    9.9933    7.1040   26.9627 C   0  0  0  0  0  0  0  0  0  0  0  0
   11.8493    6.7628   26.3113 H   0  0  0  0  0  0  0  0  0  0  0  0
   11.5637    6.3558   27.9423 H   0  0  0  0  0  0  0  0  0  0  0  0
    8.3916    7.2094   28.1544 H   0  0  0  0  0  0  0  0  0  0  0  0
    6.9332    1.2890   20.7787 C   0  0  0  0  0  0  0  0  0  0  0  0
    6.8166    0.8130   19.3523 N   0  0  0  0  0  0  0  0  0  0  0  0
    7.7870    0.4491   18.3887 C   0  0  0  0  0  0  0  0  0  0  0  0
    7.4269    0.0303   17.1089 N   0  0  0  0  0  0  0  0  0  0  0  0
    6.0571    0.1284   17.2427 C   0  0  0  0  0  0  0  0  0  0  0  0
    5.6883    0.5934   18.5647 C   0  0  0  0  0  0  0  0  0  0  0  0
    5.0454   -0.1625   16.2713 C   0  0  0  0  0  0  0  0  0  0  0  0
    3.6899    0.0068   16.6249 C   0  0  0  0  0  0  0  0  0  0  0  0
    3.3219    0.4595   17.9155 C   0  0  0  0  0  0  0  0  0  0  0  0
    4.2989    0.7521   18.8929 C   0  0  0  0  0  0  0  0  0  0  0  0
    9.2733    0.4957   18.7097 C   0  0  0  0  0  0  0  0  0  0  0  0
 32 30  2  0  0  0
 32 33  1  0  0  0
 29 30  1  0  0  0
 29 28  2  0  0  0
 30 31  1  0  0  0
 33 34  2  0  0  0
 36 28  1  0  0  0
 28 27  1  0  0  0
 31 27  1  0  0  0
 31 35  2  0  0  0
 34 35  1  0  0  0
 27 26  1  0  0  0
  7  6  1  0  0  0
  7  8  2  0  0  0
  6  4  2  0  0  0
 10  3  1  0  0  0
 26  8  1  0  0  0
  8  9  1  0  0  0
  4  3  1  0  0  0
  4  5  1  0  0  0
  3  2  1  0  0  0
  9  5  2  0  0  0
  5  1  1  0  0  0
  2  1  2  0  0  0
  2 11  1  0  0  0
 11 12  1  0  0  0
 12 17  1  0  0  0
 17 18  2  0  0  0
 17 16  1  0  0  0
 18 19  1  0  0  0
 16 15  2  0  0  0
 19 14  2  0  0  0
 15 14  1  0  0  0
 14 22  1  0  0  0
 22 21  2  0  0  0
 22 20  1  0  0  0
 20 23  1  0  0  0
 20 24  1  0  0  0
 21 25  1  0  0  0
 12 13  1  0  0  0
M  END
> <minimizedAffinity>
-11.50058

$$$$
