ZINC14962480


 42 47  0  0  0  0  0  0  0  0999 V2000
    7.8766    0.9164   18.8370 C   0  0  0  0  0  0  0  0  0  0  0  0
    7.1487    0.2578   17.8432 C   0  0  0  0  0  0  0  0  0  0  0  0
    7.8451   -0.5021   16.9124 C   0  0  0  0  0  0  0  0  0  0  0  0
    9.2284   -0.5800   17.0010 C   0  0  0  0  0  0  0  0  0  0  0  0
    9.8836    0.0550   17.9526 N   0  0  0  0  0  0  0  0  0  0  0  0
    9.2643    0.7912   18.8526 C   0  0  0  0  0  0  0  0  0  0  0  0
    7.6984    6.2663   20.7576 C   0  0  0  0  0  0  0  0  0  0  0  0
    6.8957    5.2887   21.3135 C   0  0  0  0  0  0  0  0  0  0  0  0
    6.8219    3.8602   20.9330 C   0  0  0  0  0  0  0  0  0  0  0  0
    7.4767    3.0966   19.9748 C   0  0  0  0  0  0  0  0  0  0  0  0
    7.1832    1.7416   19.8568 C   0  0  0  0  0  0  0  0  0  0  0  0
    6.2307    1.1617   20.6965 C   0  0  0  0  0  0  0  0  0  0  0  0
    5.5863    1.9180   21.6503 C   0  0  0  0  0  0  0  0  0  0  0  0
    5.8694    3.2747   21.7797 C   0  0  0  0  0  0  0  0  0  0  0  0
    5.3670    4.2439   22.6385 N   0  0  0  0  0  0  0  0  0  0  0  0
    5.9319    5.4415   22.4107 C   0  0  0  0  0  0  0  0  0  0  0  0
    5.6874    6.4737   23.0099 O   0  0  0  0  0  0  0  0  0  0  0  0
    4.6521    4.0669   23.3586 H   0  0  0  0  0  0  0  0  0  0  0  0
    6.0108    8.6639   19.8523 C   0  0  0  0  0  0  0  0  0  0  0  0
    6.9918    8.6448   20.9402 N   0  0  0  0  0  0  0  0  0  0  0  0
    7.3135    9.6965   21.7349 C   0  0  0  0  0  0  0  0  0  0  0  0
    8.2615    9.3048   22.6224 C   0  0  0  0  0  0  0  0  0  0  0  0
    8.5442    7.9586   22.3843 C   0  0  0  0  0  0  0  0  0  0  0  0
    7.7397    7.5544   21.3299 C   0  0  0  0  0  0  0  0  0  0  0  0
    7.1806   -1.1615   15.9270 O   0  0  0  0  0  0  0  0  0  0  0  0
    5.8887   -0.6651   15.5711 C   0  0  0  0  0  0  0  0  0  0  0  0
    6.0286    0.3569   14.4411 C   0  0  0  0  0  0  0  0  0  0  0  0
    6.1507   -0.3266   13.1413 N   0  0  0  0  0  0  0  0  0  0  0  0
    5.3108   -0.9015   12.9829 H   0  0  0  0  0  0  0  0  0  0  0  0
    6.9806   -0.9364   13.1579 H   0  0  0  0  0  0  0  0  0  0  0  0
    6.2444    0.3677   12.3864 H   0  0  0  0  0  0  0  0  0  0  0  0
    4.7935    1.2594   14.4139 C   0  0  0  0  0  0  0  0  0  0  0  0
    5.0638    2.5052   15.2176 C   0  0  0  0  0  0  0  0  0  0  0  0
    5.8255    3.5459   14.8453 C   0  0  0  0  0  0  0  0  0  0  0  0
    5.8352    4.4936   15.8324 N   0  0  0  0  0  0  0  0  0  0  0  0
    5.0672    4.0714   16.8943 C   0  0  0  0  0  0  0  0  0  0  0  0
    4.5503    2.8073   16.5558 C   0  0  0  0  0  0  0  0  0  0  0  0
    3.7248    2.1290   17.4543 C   0  0  0  0  0  0  0  0  0  0  0  0
    3.4228    2.6973   18.6599 C   0  0  0  0  0  0  0  0  0  0  0  0
    3.9305    3.9437   18.9987 C   0  0  0  0  0  0  0  0  0  0  0  0
    4.7469    4.6307   18.1268 C   0  0  0  0  0  0  0  0  0  0  0  0
    6.3417    5.3895   15.7876 H   0  0  0  0  0  0  0  0  0  0  0  0
 19 20  1  0  0  0
 20 24  1  0  0  0
 20 21  1  0  0  0
 21 22  2  0  0  0
 22 23  1  0  0  0
 23 24  2  0  0  0
 24  7  1  0  0  0
  7  8  2  0  0  0
  8 16  1  0  0  0
  8  9  1  0  0  0
  9 14  2  0  0  0
  9 10  1  0  0  0
 10 11  2  0  0  0
 11 12  1  0  0  0
 11  1  1  0  0  0
 12 13  2  0  0  0
 13 14  1  0  0  0
 14 15  1  0  0  0
 15 16  1  0  0  0
 15 18  1  0  0  0
 16 17  2  0  0  0
  1  6  2  0  0  0
  1  2  1  0  0  0
  2  3  2  0  0  0
  3  4  1  0  0  0
  3 25  1  0  0  0
  4  5  2  0  0  0
  5  6  1  0  0  0
 25 26  1  0  0  0
 26 27  1  0  0  0
 27 32  1  0  0  0
 27 28  1  0  0  0
 32 33  1  0  0  0
 33 37  1  0  0  0
 33 34  2  0  0  0
 34 35  1  0  0  0
 35 36  1  0  0  0
 35 42  1  0  0  0
 36 41  2  0  0  0
 36 37  1  0  0  0
 37 38  2  0  0  0
 38 39  1  0  0  0
 39 40  2  0  0  0
 40 41  1  0  0  0
 28 29  1  0  0  0
 28 30  1  0  0  0
 28 31  1  0  0  0
M  CHG 1  28   1
M  END
> <minimizedAffinity>
-10.44671

$$$$
ZINC14962480


 42 47  0  0  0  0  0  0  0  0999 V2000
    8.0542    0.8039   18.7206 C   0  0  0  0  0  0  0  0  0  0  0  0
    7.3360    0.0933   17.7561 C   0  0  0  0  0  0  0  0  0  0  0  0
    8.0455   -0.6651   16.8340 C   0  0  0  0  0  0  0  0  0  0  0  0
    9.4319   -0.6905   16.9023 C   0  0  0  0  0  0  0  0  0  0  0  0
   10.0778   -0.0072   17.8265 N   0  0  0  0  0  0  0  0  0  0  0  0
    9.4457    0.7296   18.7170 C   0  0  0  0  0  0  0  0  0  0  0  0
    3.4686    0.6366   22.0800 C   0  0  0  0  0  0  0  0  0  0  0  0
    4.3066    1.7352   22.0822 C   0  0  0  0  0  0  0  0  0  0  0  0
    5.5308    1.9355   21.2747 C   0  0  0  0  0  0  0  0  0  0  0  0
    6.1856    1.1540   20.3310 C   0  0  0  0  0  0  0  0  0  0  0  0
    7.3466    1.6301   19.7299 C   0  0  0  0  0  0  0  0  0  0  0  0
    7.8474    2.8844   20.0829 C   0  0  0  0  0  0  0  0  0  0  0  0
    7.1943    3.6613   21.0140 C   0  0  0  0  0  0  0  0  0  0  0  0
    6.0320    3.1979   21.6239 C   0  0  0  0  0  0  0  0  0  0  0  0
    5.2011    3.7692   22.5792 N   0  0  0  0  0  0  0  0  0  0  0  0
    4.1751    2.9574   22.8853 C   0  0  0  0  0  0  0  0  0  0  0  0
    3.2900    3.1943   23.6883 O   0  0  0  0  0  0  0  0  0  0  0  0
    5.3523    4.6972   22.9997 H   0  0  0  0  0  0  0  0  0  0  0  0
    2.8212   -1.1582   24.4833 C   0  0  0  0  0  0  0  0  0  0  0  0
    1.9552   -0.1309   23.8995 N   0  0  0  0  0  0  0  0  0  0  0  0
    0.7133    0.1989   24.3353 C   0  0  0  0  0  0  0  0  0  0  0  0
    0.2172    1.1855   23.5477 C   0  0  0  0  0  0  0  0  0  0  0  0
    1.1805    1.4937   22.5854 C   0  0  0  0  0  0  0  0  0  0  0  0
    2.2673    0.6647   22.8180 C   0  0  0  0  0  0  0  0  0  0  0  0
    7.3907   -1.3740   15.8769 O   0  0  0  0  0  0  0  0  0  0  0  0
    6.0142   -1.0561   15.6618 C   0  0  0  0  0  0  0  0  0  0  0  0
    5.9089    0.2755   14.9155 C   0  0  0  0  0  0  0  0  0  0  0  0
    6.0016    0.0588   13.4609 N   0  0  0  0  0  0  0  0  0  0  0  0
    5.2365   -0.5633   13.1636 H   0  0  0  0  0  0  0  0  0  0  0  0
    6.9045   -0.3866   13.2435 H   0  0  0  0  0  0  0  0  0  0  0  0
    5.9300    0.9592   12.9660 H   0  0  0  0  0  0  0  0  0  0  0  0
    4.5656    0.9345   15.2352 C   0  0  0  0  0  0  0  0  0  0  0  0
    4.7894    2.1171   16.1420 C   0  0  0  0  0  0  0  0  0  0  0  0
    5.7849    3.0133   16.0545 C   0  0  0  0  0  0  0  0  0  0  0  0
    5.6613    3.9465   17.0476 N   0  0  0  0  0  0  0  0  0  0  0  0
    4.5599    3.6615   17.8232 C   0  0  0  0  0  0  0  0  0  0  0  0
    3.9654    2.5031   17.2900 C   0  0  0  0  0  0  0  0  0  0  0  0
    2.8156    1.9755   17.8802 C   0  0  0  0  0  0  0  0  0  0  0  0
    2.2728    2.5878   18.9747 C   0  0  0  0  0  0  0  0  0  0  0  0
    2.8556    3.7303   19.5048 C   0  0  0  0  0  0  0  0  0  0  0  0
    3.9905    4.2682   18.9378 C   0  0  0  0  0  0  0  0  0  0  0  0
    6.2974    4.7434   17.1933 H   0  0  0  0  0  0  0  0  0  0  0  0
 19 20  1  0  0  0
 20 24  1  0  0  0
 20 21  1  0  0  0
 21 22  2  0  0  0
 22 23  1  0  0  0
 23 24  2  0  0  0
 24  7  1  0  0  0
  7  8  2  0  0  0
  8 16  1  0  0  0
  8  9  1  0  0  0
  9 14  2  0  0  0
  9 10  1  0  0  0
 10 11  2  0  0  0
 11 12  1  0  0  0
 11  1  1  0  0  0
 12 13  2  0  0  0
 13 14  1  0  0  0
 14 15  1  0  0  0
 15 16  1  0  0  0
 15 18  1  0  0  0
 16 17  2  0  0  0
  1  6  2  0  0  0
  1  2  1  0  0  0
  2  3  2  0  0  0
  3  4  1  0  0  0
  3 25  1  0  0  0
  4  5  2  0  0  0
  5  6  1  0  0  0
 25 26  1  0  0  0
 26 27  1  0  0  0
 27 32  1  0  0  0
 27 28  1  0  0  0
 32 33  1  0  0  0
 33 37  1  0  0  0
 33 34  2  0  0  0
 34 35  1  0  0  0
 35 36  1  0  0  0
 35 42  1  0  0  0
 36 41  2  0  0  0
 36 37  1  0  0  0
 37 38  2  0  0  0
 38 39  1  0  0  0
 39 40  2  0  0  0
 40 41  1  0  0  0
 28 29  1  0  0  0
 28 30  1  0  0  0
 28 31  1  0  0  0
M  CHG 1  28   1
M  END
> <minimizedAffinity>
-10.07279

$$$$
ZINC14962480


 42 47  0  0  0  0  0  0  0  0999 V2000
    7.5836    1.6300   19.6377 C   0  0  0  0  0  0  0  0  0  0  0  0
    8.0186    2.9572   19.6556 C   0  0  0  0  0  0  0  0  0  0  0  0
    7.4700    3.8165   20.5987 C   0  0  0  0  0  0  0  0  0  0  0  0
    6.5164    3.3308   21.4831 C   0  0  0  0  0  0  0  0  0  0  0  0
    6.1288    2.0716   21.4379 N   0  0  0  0  0  0  0  0  0  0  0  0
    6.6183    1.2235   20.5566 C   0  0  0  0  0  0  0  0  0  0  0  0
    5.9205   -1.5897   15.2549 C   0  0  0  0  0  0  0  0  0  0  0  0
    7.2394   -1.5830   15.6665 C   0  0  0  0  0  0  0  0  0  0  0  0
    7.8312   -0.8081   16.7802 C   0  0  0  0  0  0  0  0  0  0  0  0
    7.3035    0.0902   17.6991 C   0  0  0  0  0  0  0  0  0  0  0  0
    8.1365    0.6692   18.6513 C   0  0  0  0  0  0  0  0  0  0  0  0
    9.4949    0.3483   18.6727 C   0  0  0  0  0  0  0  0  0  0  0  0
   10.0164   -0.5471   17.7654 C   0  0  0  0  0  0  0  0  0  0  0  0
    9.1951   -1.1339   16.8068 C   0  0  0  0  0  0  0  0  0  0  0  0
    9.4654   -2.0449   15.7937 N   0  0  0  0  0  0  0  0  0  0  0  0
    8.3576   -2.3436   15.0944 C   0  0  0  0  0  0  0  0  0  0  0  0
    8.2922   -3.1116   14.1509 O   0  0  0  0  0  0  0  0  0  0  0  0
   10.3967   -2.4412   15.6028 H   0  0  0  0  0  0  0  0  0  0  0  0
    5.0578   -4.4953   15.7342 C   0  0  0  0  0  0  0  0  0  0  0  0
    5.1070   -3.7978   14.4468 N   0  0  0  0  0  0  0  0  0  0  0  0
    4.7714   -4.3299   13.2447 C   0  0  0  0  0  0  0  0  0  0  0  0
    4.9491   -3.3910   12.2819 C   0  0  0  0  0  0  0  0  0  0  0  0
    5.4068   -2.2246   12.8973 C   0  0  0  0  0  0  0  0  0  0  0  0
    5.4985   -2.4901   14.2549 C   0  0  0  0  0  0  0  0  0  0  0  0
    7.8619    5.1168   20.6552 O   0  0  0  0  0  0  0  0  0  0  0  0
    6.8380    6.0953   20.8451 C   0  0  0  0  0  0  0  0  0  0  0  0
    7.4450    7.4958   20.7389 C   0  0  0  0  0  0  0  0  0  0  0  0
    7.1551    8.0835   19.4191 N   0  0  0  0  0  0  0  0  0  0  0  0
    6.1345    8.1407   19.2926 H   0  0  0  0  0  0  0  0  0  0  0  0
    7.5541    7.4795   18.6863 H   0  0  0  0  0  0  0  0  0  0  0  0
    7.5668    9.0255   19.3555 H   0  0  0  0  0  0  0  0  0  0  0  0
    6.8486    8.3938   21.8246 C   0  0  0  0  0  0  0  0  0  0  0  0
    7.3039    7.9148   23.1789 C   0  0  0  0  0  0  0  0  0  0  0  0
    6.6369    7.0875   23.9990 C   0  0  0  0  0  0  0  0  0  0  0  0
    7.3627    6.8760   25.1396 N   0  0  0  0  0  0  0  0  0  0  0  0
    8.5406    7.5869   25.0835 C   0  0  0  0  0  0  0  0  0  0  0  0
    8.5555    8.2688   23.8528 C   0  0  0  0  0  0  0  0  0  0  0  0
    9.6423    9.0784   23.5183 C   0  0  0  0  0  0  0  0  0  0  0  0
   10.6877    9.2047   24.3894 C   0  0  0  0  0  0  0  0  0  0  0  0
   10.6776    8.5346   25.6046 C   0  0  0  0  0  0  0  0  0  0  0  0
    9.6152    7.7301   25.9548 C   0  0  0  0  0  0  0  0  0  0  0  0
    7.0712    6.2746   25.9234 H   0  0  0  0  0  0  0  0  0  0  0  0
 19 20  1  0  0  0
 20 24  1  0  0  0
 20 21  1  0  0  0
 21 22  2  0  0  0
 22 23  1  0  0  0
 23 24  2  0  0  0
 24  7  1  0  0  0
  7  8  2  0  0  0
  8 16  1  0  0  0
  8  9  1  0  0  0
  9 14  2  0  0  0
  9 10  1  0  0  0
 10 11  2  0  0  0
 11 12  1  0  0  0
 11  1  1  0  0  0
 12 13  2  0  0  0
 13 14  1  0  0  0
 14 15  1  0  0  0
 15 16  1  0  0  0
 15 18  1  0  0  0
 16 17  2  0  0  0
  1  6  2  0  0  0
  1  2  1  0  0  0
  2  3  2  0  0  0
  3  4  1  0  0  0
  3 25  1  0  0  0
  4  5  2  0  0  0
  5  6  1  0  0  0
 25 26  1  0  0  0
 26 27  1  0  0  0
 27 32  1  0  0  0
 27 28  1  0  0  0
 32 33  1  0  0  0
 33 37  1  0  0  0
 33 34  2  0  0  0
 34 35  1  0  0  0
 35 36  1  0  0  0
 35 42  1  0  0  0
 36 41  2  0  0  0
 36 37  1  0  0  0
 37 38  2  0  0  0
 38 39  1  0  0  0
 39 40  2  0  0  0
 40 41  1  0  0  0
 28 29  1  0  0  0
 28 30  1  0  0  0
 28 31  1  0  0  0
M  CHG 1  28   1
M  END
> <minimizedAffinity>
-9.73611

$$$$
