BDB12751


 41 44  0  0  0  0  0  0  0  0999 V2000
    6.4440    6.4007   22.8787 C   0  0  0  0  0  0  0  0  0  0  0  0
    7.5664    6.4004   22.4115 O   0  0  0  0  0  0  0  0  0  0  0  0
    5.6393    5.3439   22.5628 N   0  0  0  0  0  0  0  0  0  0  0  0
    4.7182    5.2921   22.9297 H   0  0  0  0  0  0  0  0  0  0  0  0
    5.9574    7.4951   23.7702 C   0  0  0  0  0  0  0  0  0  0  0  0
    4.6113    7.7867   23.9166 C   0  0  0  0  0  0  0  0  0  0  0  0
    5.8727    9.1316   25.1513 N   0  0  0  0  0  0  0  0  0  0  0  0
    6.6600    8.3408   24.5409 N   0  0  0  0  0  0  0  0  0  0  0  0
    4.6214    8.8409   24.8106 C   0  0  0  0  0  0  0  0  0  0  0  0
    3.3967    9.5489   25.3174 C   0  0  0  0  0  0  0  0  0  0  0  0
    8.7078    7.7580   25.7828 C   0  0  0  0  0  0  0  0  0  0  0  0
   10.0896    7.8370   25.9505 C   0  0  0  0  0  0  0  0  0  0  0  0
   10.8752    8.5680   25.0714 C   0  0  0  0  0  0  0  0  0  0  0  0
   10.2883    9.2284   24.0131 C   0  0  0  0  0  0  0  0  0  0  0  0
    8.9182    9.1381   23.8635 C   0  0  0  0  0  0  0  0  0  0  0  0
    8.1025    8.4187   24.7216 C   0  0  0  0  0  0  0  0  0  0  0  0
   10.7562    7.1629   27.0428 C   0  0  0  0  0  0  0  0  0  0  0  0
   12.1520    6.8430   26.9193 N   0  0  0  0  0  0  0  0  0  0  0  0
   10.1276    6.8530   28.1013 N   0  0  0  0  0  0  0  0  0  0  0  0
   12.6747    7.0897   26.0637 H   0  0  0  0  0  0  0  0  0  0  0  0
   12.6336    6.3669   27.6846 H   0  0  0  0  0  0  0  0  0  0  0  0
    9.1636    7.0685   28.1982 H   0  0  0  0  0  0  0  0  0  0  0  0
   10.6054    6.3921   28.8349 H   0  0  0  0  0  0  0  0  0  0  0  0
    6.1055    4.3153   21.7297 C   0  0  0  0  0  0  0  0  0  0  0  0
    6.5046    1.9794   21.1872 C   0  0  0  0  0  0  0  0  0  0  0  0
    6.0191    2.9576   22.0463 C   0  0  0  0  0  0  0  0  0  0  0  0
    6.6759    4.6901   20.5347 C   0  0  0  0  0  0  0  0  0  0  0  0
    7.1486    3.7089   19.6907 C   0  0  0  0  0  0  0  0  0  0  0  0
    7.0854    2.3698   19.9884 C   0  0  0  0  0  0  0  0  0  0  0  0
    7.6237    1.3779   19.0627 C   0  0  0  0  0  0  0  0  0  0  0  0
    7.5268   -0.2442   17.2985 C   0  0  0  0  0  0  0  0  0  0  0  0
    6.8613    0.6676   18.1119 C   0  0  0  0  0  0  0  0  0  0  0  0
    8.9937    1.1505   19.1553 C   0  0  0  0  0  0  0  0  0  0  0  0
    9.6346    0.2352   18.3327 C   0  0  0  0  0  0  0  0  0  0  0  0
    8.8929   -0.4666   17.3975 C   0  0  0  0  0  0  0  0  0  0  0  0
    4.6553   -0.4684   16.6707 N   0  0  0  0  0  0  0  0  0  0  0  0
    5.0372    0.7671   17.7555 S   0  0  0  0  0  0  0  0  0  0  0  0
    4.3045    0.5177   19.0572 O   0  0  0  0  0  0  0  0  0  0  0  0
    4.4235    2.0153   17.1603 O   0  0  0  0  0  0  0  0  0  0  0  0
    3.7758   -0.4598   16.2054 H   0  0  0  0  0  0  0  0  0  0  0  0
    5.3285   -1.1595   16.4505 H   0  0  0  0  0  0  0  0  0  0  0  0
 11 12  2  0  0  0
 11 16  1  0  0  0
 12 13  1  0  0  0
 12 17  1  0  0  0
 13 14  2  0  0  0
 14 15  1  0  0  0
 15 16  2  0  0  0
 16  8  1  0  0  0
 17 19  2  0  0  0
 17 18  1  0  0  0
 18 20  1  0  0  0
 18 21  1  0  0  0
 19 22  1  0  0  0
 19 23  1  0  0  0
  5  6  2  0  0  0
  5  1  1  0  0  0
  7  8  1  0  0  0
  8  5  1  0  0  0
  1  3  1  0  0  0
  1  2  2  0  0  0
  3 24  1  0  0  0
  3  4  1  0  0  0
 24 27  1  0  0  0
 25 26  1  0  0  0
 25 29  2  0  0  0
 26 24  2  0  0  0
 27 28  2  0  0  0
 28 29  1  0  0  0
 29 30  1  0  0  0
  9  7  2  0  0  0
  9  6  1  0  0  0
  9 10  1  0  0  0
 30 33  1  0  0  0
 31 32  1  0  0  0
 31 35  2  0  0  0
 32 30  2  0  0  0
 32 37  1  0  0  0
 33 34  2  0  0  0
 34 35  1  0  0  0
 36 40  1  0  0  0
 36 41  1  0  0  0
 37 36  1  0  0  0
 37 39  2  0  0  0
 37 38  2  0  0  0
M  CHG 1  19   1
M  END
> <minimizedAffinity>
-12.98712

$$$$
BDB12751


 41 44  0  0  0  0  0  0  0  0999 V2000
    5.7364    5.7910   22.4572 C   0  0  0  0  0  0  0  0  0  0  0  0
    6.2764    6.2383   21.4640 O   0  0  0  0  0  0  0  0  0  0  0  0
    5.7355    4.4337   22.6059 N   0  0  0  0  0  0  0  0  0  0  0  0
    5.3180    4.0206   23.4064 H   0  0  0  0  0  0  0  0  0  0  0  0
    5.1089    6.6750   23.4839 C   0  0  0  0  0  0  0  0  0  0  0  0
    3.7446    6.6787   23.7229 C   0  0  0  0  0  0  0  0  0  0  0  0
    4.8034    8.1194   25.0373 N   0  0  0  0  0  0  0  0  0  0  0  0
    5.6856    7.5636   24.3089 N   0  0  0  0  0  0  0  0  0  0  0  0
    3.6114    7.6216   24.7248 C   0  0  0  0  0  0  0  0  0  0  0  0
    2.3100    8.0202   25.3615 C   0  0  0  0  0  0  0  0  0  0  0  0
    7.8362    7.4363   25.5065 C   0  0  0  0  0  0  0  0  0  0  0  0
    9.1855    7.7696   25.6173 C   0  0  0  0  0  0  0  0  0  0  0  0
    9.8044    8.5681   24.6667 C   0  0  0  0  0  0  0  0  0  0  0  0
    9.0814    9.0424   23.5929 C   0  0  0  0  0  0  0  0  0  0  0  0
    7.7463    8.7012   23.5004 C   0  0  0  0  0  0  0  0  0  0  0  0
    7.0951    7.9075   24.4306 C   0  0  0  0  0  0  0  0  0  0  0  0
    9.9901    7.2982   26.7229 C   0  0  0  0  0  0  0  0  0  0  0  0
    9.3448    6.9525   27.9598 N   0  0  0  0  0  0  0  0  0  0  0  0
   11.2500    7.1871   26.6143 N   0  0  0  0  0  0  0  0  0  0  0  0
    8.3208    7.0383   28.0610 H   0  0  0  0  0  0  0  0  0  0  0  0
    9.9029    6.6182   28.7478 H   0  0  0  0  0  0  0  0  0  0  0  0
   11.7070    7.4229   25.7653 H   0  0  0  0  0  0  0  0  0  0  0  0
   11.7791    6.8623   27.3847 H   0  0  0  0  0  0  0  0  0  0  0  0
    6.3331    3.6092   21.6403 C   0  0  0  0  0  0  0  0  0  0  0  0
    7.8781    3.1816   19.8127 C   0  0  0  0  0  0  0  0  0  0  0  0
    7.3251    4.0390   20.7559 C   0  0  0  0  0  0  0  0  0  0  0  0
    5.9019    2.3037   21.5811 C   0  0  0  0  0  0  0  0  0  0  0  0
    6.4627    1.4636   20.6439 C   0  0  0  0  0  0  0  0  0  0  0  0
    7.4293    1.8692   19.7567 C   0  0  0  0  0  0  0  0  0  0  0  0
    7.9698    0.9377   18.7714 C   0  0  0  0  0  0  0  0  0  0  0  0
    7.8829   -0.5452   16.8882 C   0  0  0  0  0  0  0  0  0  0  0  0
    7.2165    0.3176   17.7526 C   0  0  0  0  0  0  0  0  0  0  0  0
    9.3322    0.6737   18.8778 C   0  0  0  0  0  0  0  0  0  0  0  0
    9.9742   -0.1913   18.0034 C   0  0  0  0  0  0  0  0  0  0  0  0
    9.2414   -0.8045   17.0012 C   0  0  0  0  0  0  0  0  0  0  0  0
    5.1283    2.0707   16.8585 N   0  0  0  0  0  0  0  0  0  0  0  0
    5.4041    0.4839   17.3632 S   0  0  0  0  0  0  0  0  0  0  0  0
    5.0971   -0.4543   16.2146 O   0  0  0  0  0  0  0  0  0  0  0  0
    4.3503    0.2183   18.4158 O   0  0  0  0  0  0  0  0  0  0  0  0
    4.1956    2.4121   16.7970 H   0  0  0  0  0  0  0  0  0  0  0  0
    5.8924    2.6762   16.6887 H   0  0  0  0  0  0  0  0  0  0  0  0
 11 12  2  0  0  0
 11 16  1  0  0  0
 12 13  1  0  0  0
 12 17  1  0  0  0
 13 14  2  0  0  0
 14 15  1  0  0  0
 15 16  2  0  0  0
 16  8  1  0  0  0
 17 19  2  0  0  0
 17 18  1  0  0  0
 18 20  1  0  0  0
 18 21  1  0  0  0
 19 22  1  0  0  0
 19 23  1  0  0  0
  5  6  2  0  0  0
  5  1  1  0  0  0
  7  8  1  0  0  0
  8  5  1  0  0  0
  1  3  1  0  0  0
  1  2  2  0  0  0
  3 24  1  0  0  0
  3  4  1  0  0  0
 24 27  1  0  0  0
 25 26  1  0  0  0
 25 29  2  0  0  0
 26 24  2  0  0  0
 27 28  2  0  0  0
 28 29  1  0  0  0
 29 30  1  0  0  0
  9  7  2  0  0  0
  9  6  1  0  0  0
  9 10  1  0  0  0
 30 33  1  0  0  0
 31 32  1  0  0  0
 31 35  2  0  0  0
 32 30  2  0  0  0
 32 37  1  0  0  0
 33 34  2  0  0  0
 34 35  1  0  0  0
 36 40  1  0  0  0
 36 41  1  0  0  0
 37 36  1  0  0  0
 37 39  2  0  0  0
 37 38  2  0  0  0
M  CHG 1  19   1
M  END
> <minimizedAffinity>
-12.78268

$$$$
BDB12751


 41 44  0  0  0  0  0  0  0  0999 V2000
    4.8585    5.1513   22.2981 C   0  0  0  0  0  0  0  0  0  0  0  0
    4.3330    4.9996   21.2123 O   0  0  0  0  0  0  0  0  0  0  0  0
    5.9479    4.3762   22.5747 N   0  0  0  0  0  0  0  0  0  0  0  0
    6.4195    4.4717   23.4431 H   0  0  0  0  0  0  0  0  0  0  0  0
    4.3537    6.1462   23.2904 C   0  0  0  0  0  0  0  0  0  0  0  0
    3.0421    6.1472   23.7355 C   0  0  0  0  0  0  0  0  0  0  0  0
    4.2210    7.7736   24.6784 N   0  0  0  0  0  0  0  0  0  0  0  0
    5.0076    7.1494   23.8979 N   0  0  0  0  0  0  0  0  0  0  0  0
    3.0190    7.2095   24.6195 C   0  0  0  0  0  0  0  0  0  0  0  0
    1.8117    7.6555   25.3950 C   0  0  0  0  0  0  0  0  0  0  0  0
    6.9227    7.8186   22.4979 C   0  0  0  0  0  0  0  0  0  0  0  0
    8.2595    8.1930   22.3683 C   0  0  0  0  0  0  0  0  0  0  0  0
    9.0839    8.2939   23.4794 C   0  0  0  0  0  0  0  0  0  0  0  0
    8.5811    8.0223   24.7340 C   0  0  0  0  0  0  0  0  0  0  0  0
    7.2545    7.6533   24.8421 C   0  0  0  0  0  0  0  0  0  0  0  0
    6.4025    7.5413   23.7554 C   0  0  0  0  0  0  0  0  0  0  0  0
    8.8373    8.4898   21.0761 C   0  0  0  0  0  0  0  0  0  0  0  0
    8.3342    7.8118   19.9129 N   0  0  0  0  0  0  0  0  0  0  0  0
    9.7765    9.3358   20.9582 N   0  0  0  0  0  0  0  0  0  0  0  0
    7.5707    7.1216   19.9952 H   0  0  0  0  0  0  0  0  0  0  0  0
    8.7347    8.0134   18.9946 H   0  0  0  0  0  0  0  0  0  0  0  0
   10.1323    9.8102   21.7542 H   0  0  0  0  0  0  0  0  0  0  0  0
   10.1556    9.5220   20.0635 H   0  0  0  0  0  0  0  0  0  0  0  0
    6.4211    3.4479   21.6346 C   0  0  0  0  0  0  0  0  0  0  0  0
    6.5616    1.2208   20.6701 C   0  0  0  0  0  0  0  0  0  0  0  0
    6.0563    2.0996   21.6204 C   0  0  0  0  0  0  0  0  0  0  0  0
    7.2932    3.9167   20.6789 C   0  0  0  0  0  0  0  0  0  0  0  0
    7.7823    3.0348   19.7400 C   0  0  0  0  0  0  0  0  0  0  0  0
    7.4470    1.7033   19.7160 C   0  0  0  0  0  0  0  0  0  0  0  0
    8.0156    0.8131   18.7087 C   0  0  0  0  0  0  0  0  0  0  0  0
    7.9769   -0.6140   16.7813 C   0  0  0  0  0  0  0  0  0  0  0  0
    7.2848    0.2085   17.6646 C   0  0  0  0  0  0  0  0  0  0  0  0
    9.3823    0.5742   18.8204 C   0  0  0  0  0  0  0  0  0  0  0  0
   10.0501   -0.2507   17.9268 C   0  0  0  0  0  0  0  0  0  0  0  0
    9.3394   -0.8486   16.8997 C   0  0  0  0  0  0  0  0  0  0  0  0
    5.2005    1.8945   16.6415 N   0  0  0  0  0  0  0  0  0  0  0  0
    5.4729    0.3490   17.2627 S   0  0  0  0  0  0  0  0  0  0  0  0
    5.1646   -0.6712   16.1868 O   0  0  0  0  0  0  0  0  0  0  0  0
    4.4181    0.1643   18.3315 O   0  0  0  0  0  0  0  0  0  0  0  0
    4.2685    2.2323   16.5543 H   0  0  0  0  0  0  0  0  0  0  0  0
    5.9659    2.4842   16.4277 H   0  0  0  0  0  0  0  0  0  0  0  0
 11 12  2  0  0  0
 11 16  1  0  0  0
 12 13  1  0  0  0
 12 17  1  0  0  0
 13 14  2  0  0  0
 14 15  1  0  0  0
 15 16  2  0  0  0
 16  8  1  0  0  0
 17 19  2  0  0  0
 17 18  1  0  0  0
 18 20  1  0  0  0
 18 21  1  0  0  0
 19 22  1  0  0  0
 19 23  1  0  0  0
  5  6  2  0  0  0
  5  1  1  0  0  0
  7  8  1  0  0  0
  8  5  1  0  0  0
  1  3  1  0  0  0
  1  2  2  0  0  0
  3 24  1  0  0  0
  3  4  1  0  0  0
 24 27  1  0  0  0
 25 26  1  0  0  0
 25 29  2  0  0  0
 26 24  2  0  0  0
 27 28  2  0  0  0
 28 29  1  0  0  0
 29 30  1  0  0  0
  9  7  2  0  0  0
  9  6  1  0  0  0
  9 10  1  0  0  0
 30 33  1  0  0  0
 31 32  1  0  0  0
 31 35  2  0  0  0
 32 30  2  0  0  0
 32 37  1  0  0  0
 33 34  2  0  0  0
 34 35  1  0  0  0
 36 40  1  0  0  0
 36 41  1  0  0  0
 37 36  1  0  0  0
 37 39  2  0  0  0
 37 38  2  0  0  0
M  CHG 1  19   1
M  END
> <minimizedAffinity>
-12.67731

$$$$
