ZINC14733558
 OpenBabel07192215303D

 37 41  0  0  0  0  0  0  0  0999 V2000
    6.3389    8.1430   22.6118 N   0  0  0  0  0  0  0  0  0  0  0  0
    6.2262    7.0530   21.8351 C   0  0  0  0  0  0  0  0  0  0  0  0
    4.9137    6.9159   21.5238 C   0  0  0  0  0  0  0  0  0  0  0  0
    4.2544    7.9862   22.1513 C   0  0  0  0  0  0  0  0  0  0  0  0
    5.1811    8.6794   22.7904 N   0  0  0  0  0  0  0  0  0  0  0  0
    4.3510    5.8244   20.6558 C   0  0  0  0  0  0  0  0  0  0  0  0
    5.5096    5.1691   19.8916 C   0  0  1  0  0  0  0  0  0  0  0  0
    6.6353    4.8214   20.8695 C   0  0  0  0  0  0  0  0  0  0  0  0
    7.3039    6.1099   21.3654 C   0  0  0  0  0  0  0  0  0  0  0  0
    2.8067    8.2765   22.1102 C   0  0  0  0  0  0  0  0  0  0  0  0
    2.3248    8.8290   21.1404 O   0  0  0  0  0  0  0  0  0  0  0  0
    2.0200    7.9290   23.1479 N   0  0  0  0  0  0  0  0  0  0  0  0
    2.5750    7.1257   24.2385 C   0  0  0  0  0  0  0  0  0  0  0  0
    2.5895    7.9643   25.5275 C   0  0  0  0  0  0  0  0  0  0  0  0
    0.8945    8.5225   25.8759 S   0  0  0  0  0  0  0  0  0  0  0  0
    0.3996    9.3340   24.3260 C   0  0  0  0  0  0  0  0  0  0  0  0
    0.6196    8.3543   23.1677 C   0  0  0  0  0  0  0  0  0  0  0  0
    5.0249    3.9373   19.2407 N   0  3  0  0  0  0  0  0  0  0  0  0
    4.4954    4.1839   18.3924 H   0  0  0  0  0  0  0  0  0  0  0  0
    4.4060    3.4295   19.8888 H   0  0  0  0  0  0  0  0  0  0  0  0
    6.1611    3.0718   18.8721 C   0  0  0  0  0  0  0  0  0  0  0  0
    5.8507    1.6326   19.2884 C   0  0  0  0  0  0  0  0  0  0  0  0
    7.0495    1.0489   20.0386 C   0  0  0  0  0  0  0  0  0  0  0  0
    8.2777    1.0623   19.1264 C   0  0  0  0  0  0  0  0  0  0  0  0
    7.9968    0.2203   17.8802 C   0  0  0  0  0  0  0  0  0  0  0  0
    6.7979    0.8041   17.1300 C   0  0  0  0  0  0  0  0  0  0  0  0
    5.5696    0.7906   18.0422 C   0  0  0  0  0  0  0  0  0  0  0  0
    5.0869    1.2763   21.5578 C   0  0  0  0  0  0  0  0  0  0  0  0
    3.8651    1.3567   22.4759 C   0  0  0  0  0  0  0  0  0  0  0  0
    2.8152    0.3441   22.0101 C   0  0  0  0  0  0  0  0  0  0  0  0
    2.4465    0.6367   20.5530 C   0  0  0  0  0  0  0  0  0  0  0  0
    3.7094    0.5772   19.6906 C   0  0  0  0  0  0  0  0  0  0  0  0
    4.6694    1.5917   20.1749 N   0  3  0  0  0  0  0  0  0  0  0  0
    4.2117    2.5144   20.1669 H   0  0  0  0  0  0  0  0  0  0  0  0
    7.5941    8.6475   23.1738 C   0  0  0  0  0  0  0  0  0  0  0  0
    8.5276    7.6107   25.1775 C   0  0  0  0  0  0  0  0  0  0  0  0
    7.6161    8.3962   24.6596 C   0  0  0  0  0  0  0  0  0  0  0  0
  1  5  1  0  0  0  0
  1  2  1  0  0  0  0
  2  9  1  0  0  0  0
  2  3  2  0  0  0  0
  3  4  1  0  0  0  0
  3  6  1  0  0  0  0
  4  5  2  0  0  0  0
  4 10  1  0  0  0  0
  6  7  1  0  0  0  0
  7  8  1  0  0  0  0
  7 18  1  1  0  0  0
  8  9  1  0  0  0  0
 10 11  2  0  0  0  0
 10 12  1  0  0  0  0
 12 17  1  0  0  0  0
 12 13  1  0  0  0  0
 13 14  1  0  0  0  0
 14 15  1  0  0  0  0
 15 16  1  0  0  0  0
 16 17  1  0  0  0  0
 18 19  1  0  0  0  0
 18 20  1  0  0  0  0
 21 22  1  0  0  0  0
 21 18  1  0  0  0  0
 22 27  1  0  0  0  0
 22 23  1  0  0  0  0
 22 33  1  0  0  0  0
 23 24  1  0  0  0  0
 24 25  1  0  0  0  0
 25 26  1  0  0  0  0
 26 27  1  0  0  0  0
 28 29  1  0  0  0  0
 28 33  1  0  0  0  0
 29 30  1  0  0  0  0
 30 31  1  0  0  0  0
 31 32  1  0  0  0  0
 32 33  1  0  0  0  0
 33 34  1  0  0  0  0
 35  1  1  0  0  0  0
 36 37  2  0  0  0  0
 37 35  1  0  0  0  0
M  CHG  2  18   1  33   1
M  END
>  <minimizedAffinity>
-7.68522

$$$$
