ZINC17038470
 OpenBabel07192215303D

 40 45  0  0  0  0  0  0  0  0999 V2000
    5.8930    0.4353   17.4873 C   0  0  0  0  0  0  0  0  0  0  0  0
    5.6054    1.2663   18.5295 C   0  0  0  0  0  0  0  0  0  0  0  0
    6.7322    1.5205   19.2375 N   0  0  0  0  0  0  0  0  0  0  0  0
    7.8108    0.8684   18.6764 C   0  0  0  0  0  0  0  0  0  0  0  0
    7.3398    0.1607   17.5586 C   0  0  0  0  0  0  0  0  0  0  0  0
    8.2197   -0.5974   16.7906 C   0  0  0  0  0  0  0  0  0  0  0  0
    9.5535   -0.6492   17.1330 C   0  0  0  0  0  0  0  0  0  0  0  0
   10.0203    0.0493   18.2368 C   0  0  0  0  0  0  0  0  0  0  0  0
    9.1605    0.8034   19.0057 C   0  0  0  0  0  0  0  0  0  0  0  0
    4.8487    0.5193   15.2833 N   0  0  0  0  0  0  0  0  0  0  0  0
    5.7858    1.5835   14.9148 C   0  0  0  0  0  0  0  0  0  0  0  0
    4.9486   -0.0795   16.4866 C   0  0  0  0  0  0  0  0  0  0  0  0
    4.2565   -1.0464   16.7442 O   0  0  0  0  0  0  0  0  0  0  0  0
    1.0881    0.4784   11.0620 C   0  0  0  0  0  0  0  0  0  0  0  0
    1.5447    0.6563   13.4328 C   0  0  0  0  0  0  0  0  0  0  0  0
    2.6079    1.0561   14.4585 C   0  0  0  0  0  0  0  0  0  0  0  0
    3.8033    0.1061   14.3439 C   0  0  1  0  0  0  0  0  0  0  0  0
    4.3509    0.1553   12.9148 C   0  0  0  0  0  0  0  0  0  0  0  0
    3.2368   -0.2169   11.9338 C   0  0  0  0  0  0  0  0  0  0  0  0
    2.1271    0.7493   12.0770 N   0  3  1  0  0  0  0  0  0  0  0  0
    2.4939    1.7015   11.9360 H   0  0  0  0  0  0  0  0  0  0  0  0
    6.7972    2.3722   20.4278 C   0  0  0  0  0  0  0  0  0  0  0  0
    6.4458    3.8112   20.0450 C   0  0  1  0  0  0  0  0  0  0  0  0
    4.9817    4.0904   20.3956 C   0  0  0  0  0  0  0  0  0  0  0  0
    4.6552    5.5495   20.0652 C   0  0  0  0  0  0  0  0  0  0  0  0
    5.6053    6.4673   20.8377 C   0  0  0  0  0  0  0  0  0  0  0  0
    7.3446    4.7793   20.8175 C   0  0  0  0  0  0  0  0  0  0  0  0
    6.9960    6.1651   20.4371 N   0  3  2  0  0  0  0  0  0  0  0  0
    7.0764    6.2605   19.4147 H   0  0  0  0  0  0  0  0  0  0  0  0
    7.9251    7.1144   21.0839 C   0  0  0  0  0  0  0  0  0  0  0  0
    7.2479    7.6970   22.3261 C   0  0  0  0  0  0  0  0  0  0  0  0
    8.2836    7.9498   23.3911 C   0  0  0  0  0  0  0  0  0  0  0  0
    9.2787    8.8855   23.1773 C   0  0  0  0  0  0  0  0  0  0  0  0
   10.2276    9.1250   24.1535 C   0  0  0  0  0  0  0  0  0  0  0  0
   10.1907    8.4183   25.3447 C   0  0  0  0  0  0  0  0  0  0  0  0
    9.1914    7.4719   25.5579 C   0  0  0  0  0  0  0  0  0  0  0  0
    8.2401    7.2415   24.5774 C   0  0  0  0  0  0  0  0  0  0  0  0
    9.3705    6.9192   26.7930 O   0  0  0  0  0  0  0  0  0  0  0  0
   10.7232    7.2417   27.1661 C   0  0  0  0  0  0  0  0  0  0  0  0
   10.9956    8.4586   26.4463 O   0  0  0  0  0  0  0  0  0  0  0  0
  1  5  1  0  0  0  0
  1  2  2  0  0  0  0
  2  3  1  0  0  0  0
  3  4  1  0  0  0  0
  3 22  1  0  0  0  0
  4  9  2  0  0  0  0
  4  5  1  0  0  0  0
  5  6  2  0  0  0  0
  6  7  1  0  0  0  0
  7  8  2  0  0  0  0
  8  9  1  0  0  0  0
 10 11  1  0  0  0  0
 10 12  1  0  0  0  0
 12 13  2  0  0  0  0
 12  1  1  0  0  0  0
 14 20  1  0  0  0  0
 15 16  1  0  0  0  0
 15 20  1  0  0  0  0
 16 17  1  0  0  0  0
 17 18  1  0  0  0  0
 17 10  1  1  0  0  0
 18 19  1  0  0  0  0
 19 20  1  0  0  0  0
 20 21  1  6  0  0  0
 23 22  1  1  0  0  0
 23 27  1  0  0  0  0
 23 24  1  0  0  0  0
 24 25  1  0  0  0  0
 25 26  1  0  0  0  0
 26 28  1  0  0  0  0
 27 28  1  0  0  0  0
 28 29  1  6  0  0  0
 30 31  1  0  0  0  0
 30 28  1  0  0  0  0
 31 32  1  0  0  0  0
 32 37  2  0  0  0  0
 32 33  1  0  0  0  0
 33 34  2  0  0  0  0
 34 35  1  0  0  0  0
 35 40  1  0  0  0  0
 35 36  2  0  0  0  0
 36 37  1  0  0  0  0
 36 38  1  0  0  0  0
 38 39  1  0  0  0  0
 39 40  1  0  0  0  0
M  CHG  2  20   1  28   1
M  END
>  <minimizedAffinity>
-10.78231

$$$$
