BDB50243339


 38 42  0  0  0  0  0  0  0  0999 V2000
    6.5542    8.3730   24.7354 N   0  0  0  0  0  0  0  0  0  0  0  0
    4.5191    8.8956   25.0244 C   0  0  0  0  0  0  0  0  0  0  0  0
    5.7801    9.1826   25.3530 N   0  0  0  0  0  0  0  0  0  0  0  0
    4.5339    7.8388   24.1408 C   0  0  0  0  0  0  0  0  0  0  0  0
    5.8616    7.5298   23.9841 C   0  0  0  0  0  0  0  0  0  0  0  0
    6.3039    6.4774   23.1238 C   0  0  0  0  0  0  0  0  0  0  0  0
    5.3416    5.7128   22.4423 N   0  0  0  0  0  0  0  0  0  0  0  0
    3.8814    5.8862   22.6528 C   0  0  0  0  0  0  0  0  0  0  0  0
    3.4096    7.1674   23.4463 C   0  0  0  0  0  0  0  0  0  0  0  0
    7.5066    6.2252   22.9851 O   0  0  0  0  0  0  0  0  0  0  0  0
    5.7779    4.6751   21.6076 C   0  0  0  0  0  0  0  0  0  0  0  0
    5.8283    3.3721   22.0891 C   0  0  0  0  0  0  0  0  0  0  0  0
    6.2614    2.3424   21.2623 C   0  0  0  0  0  0  0  0  0  0  0  0
    6.6439    2.6160   19.9545 C   0  0  0  0  0  0  0  0  0  0  0  0
    6.5936    3.9187   19.4729 C   0  0  0  0  0  0  0  0  0  0  0  0
    6.1606    4.9483   20.2995 C   0  0  0  0  0  0  0  0  0  0  0  0
    7.7264    0.3080   19.6713 C   0  0  0  0  0  0  0  0  0  0  0  0
    7.1119    1.5033   19.0604 C   0  0  0  0  0  0  0  0  0  0  0  0
    8.5660    1.3290   18.8711 C   0  0  0  0  0  0  0  0  0  0  0  0
    6.1766    1.4304   17.7933 C   0  0  0  0  0  0  0  0  0  0  0  0
    5.0805    0.4050   17.8593 N   0  0  0  0  0  0  0  0  0  0  0  0
    5.3326   -0.2714   18.5940 H   0  0  0  0  0  0  0  0  0  0  0  0
    3.8093    1.0934   18.1590 C   0  0  0  0  0  0  0  0  0  0  0  0
    3.2792    0.6552   19.5434 C   0  0  0  0  0  0  0  0  0  0  0  0
    4.9213   -0.3515   16.5892 C   0  0  0  0  0  0  0  0  0  0  0  0
    6.3046   -0.6252   15.9473 C   0  0  0  0  0  0  0  0  0  0  0  0
    7.9504    8.4088   24.8323 C   0  0  0  0  0  0  0  0  0  0  0  0
    8.5912    7.6987   25.8411 C   0  0  0  0  0  0  0  0  0  0  0  0
    9.9771    7.7316   25.9408 C   0  0  0  0  0  0  0  0  0  0  0  0
   10.7213    8.4742   25.0317 C   0  0  0  0  0  0  0  0  0  0  0  0
   10.0807    9.1841   24.0231 C   0  0  0  0  0  0  0  0  0  0  0  0
    8.6951    9.1514   23.9235 C   0  0  0  0  0  0  0  0  0  0  0  0
   12.1166    8.5074   25.1317 O   0  0  0  0  0  0  0  0  0  0  0  0
   12.5723    7.6881   26.2170 C   0  0  0  0  0  0  0  0  0  0  0  0
    3.2993    9.6024   25.5271 C   0  0  0  0  0  0  0  0  0  0  0  0
    3.6702   10.6049   26.4000 F   0  0  0  0  0  0  0  0  0  0  0  0
    2.6110   10.1467   24.4621 F   0  0  0  0  0  0  0  0  0  0  0  0
    2.4851    8.7000   26.1796 F   0  0  0  0  0  0  0  0  0  0  0  0
 17 19  1  0  0  0
 18 17  1  0  0  0
 18 20  1  0  0  0
 19 18  1  0  0  0
  1 27  1  0  0  0
  1  5  1  0  0  0
  2  3  2  0  0  0
  2 35  1  0  0  0
  3  1  1  0  0  0
  4  2  1  0  0  0
  4  9  1  0  0  0
  4  5  2  0  0  0
  5  6  1  0  0  0
  6  7  1  0  0  0
  6 10  2  0  0  0
  7 11  1  0  0  0
  7  8  1  0  0  0
  8  9  1  0  0  0
 35 36  1  0  0  0
 35 37  1  0  0  0
 35 38  1  0  0  0
 11 12  2  0  0  0
 12 13  1  0  0  0
 13 14  2  0  0  0
 14 15  1  0  0  0
 14 18  1  0  0  0
 15 16  2  0  0  0
 16 11  1  0  0  0
 27 28  2  0  0  0
 28 29  1  0  0  0
 29 30  2  0  0  0
 30 31  1  0  0  0
 30 33  1  0  0  0
 31 32  2  0  0  0
 32 27  1  0  0  0
 33 34  1  0  0  0
 20 21  1  0  0  0
 21 23  1  0  0  0
 21 25  1  0  0  0
 21 22  1  0  0  0
 23 24  1  0  0  0
 25 26  1  0  0  0
M  CHG 1  21   1
M  END
> <minimizedAffinity>
-8.19398

$$$$
BDB50243339


 38 42  0  0  0  0  0  0  0  0999 V2000
    8.5785    9.5167   22.6895 N   0  0  0  0  0  0  0  0  0  0  0  0
    8.1044   10.9325   21.1832 C   0  0  0  0  0  0  0  0  0  0  0  0
    8.6914   10.7495   22.3674 N   0  0  0  0  0  0  0  0  0  0  0  0
    7.6049    9.7211   20.7580 C   0  0  0  0  0  0  0  0  0  0  0  0
    7.9274    8.8374   21.7569 C   0  0  0  0  0  0  0  0  0  0  0  0
    7.5869    7.4508   21.6887 C   0  0  0  0  0  0  0  0  0  0  0  0
    6.8675    6.9862   20.5743 N   0  0  0  0  0  0  0  0  0  0  0  0
    6.3599    7.8912   19.5114 C   0  0  0  0  0  0  0  0  0  0  0  0
    6.9053    9.3731   19.4983 C   0  0  0  0  0  0  0  0  0  0  0  0
    7.9004    6.6682   22.5933 O   0  0  0  0  0  0  0  0  0  0  0  0
    6.5263    5.6283   20.5151 C   0  0  0  0  0  0  0  0  0  0  0  0
    7.5057    4.6584   20.6942 C   0  0  0  0  0  0  0  0  0  0  0  0
    7.1685    3.3114   20.6351 C   0  0  0  0  0  0  0  0  0  0  0  0
    5.8520    2.9349   20.3969 C   0  0  0  0  0  0  0  0  0  0  0  0
    4.8726    3.9045   20.2178 C   0  0  0  0  0  0  0  0  0  0  0  0
    5.2098    5.2513   20.2769 C   0  0  0  0  0  0  0  0  0  0  0  0
    4.0603    1.1033   20.2796 C   0  0  0  0  0  0  0  0  0  0  0  0
    5.4870    1.4792   20.3331 C   0  0  0  0  0  0  0  0  0  0  0  0
    4.9155    0.8526   21.5420 C   0  0  0  0  0  0  0  0  0  0  0  0
    6.6064    0.6999   19.5422 C   0  0  0  0  0  0  0  0  0  0  0  0
    6.7149    1.0342   18.0815 N   0  0  0  0  0  0  0  0  0  0  0  0
    6.6626    2.0591   17.9934 H   0  0  0  0  0  0  0  0  0  0  0  0
    7.9943    0.5034   17.5710 C   0  0  0  0  0  0  0  0  0  0  0  0
    9.0238    0.3974   18.7193 C   0  0  0  0  0  0  0  0  0  0  0  0
    5.6073    0.4578   17.2743 C   0  0  0  0  0  0  0  0  0  0  0  0
    6.1714   -0.4704   16.1694 C   0  0  0  0  0  0  0  0  0  0  0  0
    9.1066    8.9711   23.8657 C   0  0  0  0  0  0  0  0  0  0  0  0
    8.2674    8.3203   24.7627 C   0  0  0  0  0  0  0  0  0  0  0  0
    8.7876    7.7771   25.9315 C   0  0  0  0  0  0  0  0  0  0  0  0
   10.1465    7.8848   26.2025 C   0  0  0  0  0  0  0  0  0  0  0  0
   10.9856    8.5354   25.3057 C   0  0  0  0  0  0  0  0  0  0  0  0
   10.4655    9.0786   24.1372 C   0  0  0  0  0  0  0  0  0  0  0  0
   10.6706    7.3380   27.3790 O   0  0  0  0  0  0  0  0  0  0  0  0
   12.0658    7.0415   27.2293 C   0  0  0  0  0  0  0  0  0  0  0  0
    8.0082   12.2300   20.4433 C   0  0  0  0  0  0  0  0  0  0  0  0
    8.4283   13.2615   21.2582 F   0  0  0  0  0  0  0  0  0  0  0  0
    8.8025   12.1772   19.3162 F   0  0  0  0  0  0  0  0  0  0  0  0
    6.6988   12.4442   20.0656 F   0  0  0  0  0  0  0  0  0  0  0  0
 17 19  1  0  0  0
 18 17  1  0  0  0
 18 20  1  0  0  0
 19 18  1  0  0  0
  1 27  1  0  0  0
  1  5  1  0  0  0
  2  3  2  0  0  0
  2 35  1  0  0  0
  3  1  1  0  0  0
  4  2  1  0  0  0
  4  9  1  0  0  0
  4  5  2  0  0  0
  5  6  1  0  0  0
  6  7  1  0  0  0
  6 10  2  0  0  0
  7 11  1  0  0  0
  7  8  1  0  0  0
  8  9  1  0  0  0
 35 36  1  0  0  0
 35 37  1  0  0  0
 35 38  1  0  0  0
 11 12  2  0  0  0
 12 13  1  0  0  0
 13 14  2  0  0  0
 14 15  1  0  0  0
 14 18  1  0  0  0
 15 16  2  0  0  0
 16 11  1  0  0  0
 27 28  2  0  0  0
 28 29  1  0  0  0
 29 30  2  0  0  0
 30 31  1  0  0  0
 30 33  1  0  0  0
 31 32  2  0  0  0
 32 27  1  0  0  0
 33 34  1  0  0  0
 20 21  1  0  0  0
 21 23  1  0  0  0
 21 25  1  0  0  0
 21 22  1  0  0  0
 23 24  1  0  0  0
 25 26  1  0  0  0
M  CHG 1  21   1
M  END
> <minimizedAffinity>
-7.99278

$$$$
BDB50243339


 38 42  0  0  0  0  0  0  0  0999 V2000
    6.9765    2.9257   19.9318 N   0  0  0  0  0  0  0  0  0  0  0  0
    6.9180    4.8168   20.8904 C   0  0  0  0  0  0  0  0  0  0  0  0
    7.5539    4.0657   19.9893 N   0  0  0  0  0  0  0  0  0  0  0  0
    5.8785    4.0777   21.4109 C   0  0  0  0  0  0  0  0  0  0  0  0
    5.9531    2.8662   20.7710 C   0  0  0  0  0  0  0  0  0  0  0  0
    5.0275    1.8081   21.0297 C   0  0  0  0  0  0  0  0  0  0  0  0
    4.0284    2.0066   21.9979 N   0  0  0  0  0  0  0  0  0  0  0  0
    3.9523    3.2317   22.8345 C   0  0  0  0  0  0  0  0  0  0  0  0
    4.8496    4.4590   22.4075 C   0  0  0  0  0  0  0  0  0  0  0  0
    5.1034    0.7290   20.4307 O   0  0  0  0  0  0  0  0  0  0  0  0
    3.1288    0.9637   22.2568 C   0  0  0  0  0  0  0  0  0  0  0  0
    1.8032    1.0749   21.8536 C   0  0  0  0  0  0  0  0  0  0  0  0
    0.9101    0.0415   22.1102 C   0  0  0  0  0  0  0  0  0  0  0  0
    1.3428   -1.1026   22.7700 C   0  0  0  0  0  0  0  0  0  0  0  0
    2.6682   -1.2141   23.1732 C   0  0  0  0  0  0  0  0  0  0  0  0
    3.5612   -0.1808   22.9166 C   0  0  0  0  0  0  0  0  0  0  0  0
   -0.5821   -2.0737   24.1596 C   0  0  0  0  0  0  0  0  0  0  0  0
    0.3779   -2.2200   23.0475 C   0  0  0  0  0  0  0  0  0  0  0  0
    0.6080   -3.0559   24.2429 C   0  0  0  0  0  0  0  0  0  0  0  0
    0.0119   -2.9355   21.6911 C   0  0  0  0  0  0  0  0  0  0  0  0
    1.1727   -3.2292   20.7836 N   0  0  0  0  0  0  0  0  0  0  0  0
    1.9738   -2.6731   21.1151 H   0  0  0  0  0  0  0  0  0  0  0  0
    1.4524   -4.6780   20.8310 C   0  0  0  0  0  0  0  0  0  0  0  0
    2.7789   -4.9407   21.5798 C   0  0  0  0  0  0  0  0  0  0  0  0
    0.9127   -2.8431   19.3715 C   0  0  0  0  0  0  0  0  0  0  0  0
    1.7878   -1.6276   18.9746 C   0  0  0  0  0  0  0  0  0  0  0  0
    7.3725    1.8986   19.0668 C   0  0  0  0  0  0  0  0  0  0  0  0
    8.5285    1.1754   19.3370 C   0  0  0  0  0  0  0  0  0  0  0  0
    8.9252    0.1548   18.4810 C   0  0  0  0  0  0  0  0  0  0  0  0
    8.1657   -0.1420   17.3554 C   0  0  0  0  0  0  0  0  0  0  0  0
    7.0099    0.5810   17.0853 C   0  0  0  0  0  0  0  0  0  0  0  0
    6.6134    1.6014   17.9411 C   0  0  0  0  0  0  0  0  0  0  0  0
    8.5647   -1.1694   16.4935 O   0  0  0  0  0  0  0  0  0  0  0  0
    9.8964   -1.6058   16.7980 C   0  0  0  0  0  0  0  0  0  0  0  0
    7.2716    6.2213   21.2677 C   0  0  0  0  0  0  0  0  0  0  0  0
    7.6751    6.2602   22.5869 F   0  0  0  0  0  0  0  0  0  0  0  0
    8.2934    6.6723   20.4573 F   0  0  0  0  0  0  0  0  0  0  0  0
    6.1677    7.0311   21.0986 F   0  0  0  0  0  0  0  0  0  0  0  0
 17 19  1  0  0  0
 18 17  1  0  0  0
 18 20  1  0  0  0
 19 18  1  0  0  0
  1 27  1  0  0  0
  1  5  1  0  0  0
  2  3  2  0  0  0
  2 35  1  0  0  0
  3  1  1  0  0  0
  4  2  1  0  0  0
  4  9  1  0  0  0
  4  5  2  0  0  0
  5  6  1  0  0  0
  6  7  1  0  0  0
  6 10  2  0  0  0
  7 11  1  0  0  0
  7  8  1  0  0  0
  8  9  1  0  0  0
 35 36  1  0  0  0
 35 37  1  0  0  0
 35 38  1  0  0  0
 11 12  2  0  0  0
 12 13  1  0  0  0
 13 14  2  0  0  0
 14 15  1  0  0  0
 14 18  1  0  0  0
 15 16  2  0  0  0
 16 11  1  0  0  0
 27 28  2  0  0  0
 28 29  1  0  0  0
 29 30  2  0  0  0
 30 31  1  0  0  0
 30 33  1  0  0  0
 31 32  2  0  0  0
 32 27  1  0  0  0
 33 34  1  0  0  0
 20 21  1  0  0  0
 21 23  1  0  0  0
 21 25  1  0  0  0
 21 22  1  0  0  0
 23 24  1  0  0  0
 25 26  1  0  0  0
M  CHG 1  21   1
M  END
> <minimizedAffinity>
-7.91217

$$$$
