BDB50096105


 44 47  0  0  0  0  0  0  0  0999 V2000
    5.9497    7.4661   23.7593 C   0  0  0  0  0  0  0  0  0  0  0  0
    6.6487    8.3166   24.5393 N   0  0  0  0  0  0  0  0  0  0  0  0
    5.8541    9.0640   25.1869 N   0  0  0  0  0  0  0  0  0  0  0  0
    4.6030    8.7423   24.8688 C   0  0  0  0  0  0  0  0  0  0  0  0
    4.6028    7.7123   23.9490 C   0  0  0  0  0  0  0  0  0  0  0  0
    8.0974    8.4199   24.6818 C   0  0  0  0  0  0  0  0  0  0  0  0
    8.7695    7.8031   25.7129 C   0  0  0  0  0  0  0  0  0  0  0  0
   10.1394    7.8654   25.8928 C   0  0  0  0  0  0  0  0  0  0  0  0
    8.8532    9.1548   23.7686 C   0  0  0  0  0  0  0  0  0  0  0  0
   10.8862    8.5967   24.9804 C   0  0  0  0  0  0  0  0  0  0  0  0
   10.2357    9.2369   23.9255 C   0  0  0  0  0  0  0  0  0  0  0  0
   10.7527    7.1432   27.0543 C   0  0  0  0  0  0  0  0  0  0  0  0
   10.0640    6.8527   28.0898 N   0  0  0  0  0  0  0  0  0  0  0  0
   12.1199    6.7594   27.0374 N   0  0  0  0  0  0  0  0  0  0  0  0
    9.1188    7.0950   28.1505 H   0  0  0  0  0  0  0  0  0  0  0  0
   10.4921    6.3727   28.8481 H   0  0  0  0  0  0  0  0  0  0  0  0
   12.7087    6.9714   26.2288 H   0  0  0  0  0  0  0  0  0  0  0  0
   12.5159    6.2629   27.8509 H   0  0  0  0  0  0  0  0  0  0  0  0
    6.4328    6.4073   22.8203 C   0  0  0  0  0  0  0  0  0  0  0  0
    5.7530    5.2423   22.6445 N   0  0  0  0  0  0  0  0  0  0  0  0
    7.4563    6.5198   22.1799 O   0  0  0  0  0  0  0  0  0  0  0  0
    4.9113    5.0641   23.1346 H   0  0  0  0  0  0  0  0  0  0  0  0
    6.2822    4.2856   21.7705 C   0  0  0  0  0  0  0  0  0  0  0  0
    7.1022    4.6321   20.7778 N   0  0  0  0  0  0  0  0  0  0  0  0
    5.9544    3.0209   21.9621 N   0  0  0  0  0  0  0  0  0  0  0  0
    7.2383    2.4012   20.0988 C   0  0  0  0  0  0  0  0  0  0  0  0
    7.5935    3.7437   19.9293 C   0  0  0  0  0  0  0  0  0  0  0  0
    6.4333    2.0866   21.1566 C   0  0  0  0  0  0  0  0  0  0  0  0
    6.9042    0.7148   18.2074 C   0  0  0  0  0  0  0  0  0  0  0  0
    7.7337    1.3966   19.1392 C   0  0  0  0  0  0  0  0  0  0  0  0
    7.4960   -0.2157   17.3674 C   0  0  0  0  0  0  0  0  0  0  0  0
    9.0844    1.1255   19.1637 C   0  0  0  0  0  0  0  0  0  0  0  0
    8.8556   -0.4896   17.4100 C   0  0  0  0  0  0  0  0  0  0  0  0
    9.6602    0.1867   18.3108 C   0  0  0  0  0  0  0  0  0  0  0  0
    5.1060    0.9057   17.9667 S   0  0  0  0  0  0  0  0  0  0  0  0
    4.2110    0.6099   19.1536 O   0  0  0  0  0  0  0  0  0  0  0  0
    4.8617    2.3580   17.6132 O   0  0  0  0  0  0  0  0  0  0  0  0
    4.6476   -0.0385   16.6254 N   0  0  0  0  0  0  0  0  0  0  0  0
    4.7639    0.3259   15.7067 H   0  0  0  0  0  0  0  0  0  0  0  0
    4.2803   -0.9532   16.7551 H   0  0  0  0  0  0  0  0  0  0  0  0
    3.3642    9.3897   25.4119 C   0  0  0  0  0  0  0  0  0  0  0  0
    2.6033    8.4420   26.0697 F   0  0  0  0  0  0  0  0  0  0  0  0
    2.6340    9.9291   24.3749 F   0  0  0  0  0  0  0  0  0  0  0  0
    3.7164   10.3892   26.2933 F   0  0  0  0  0  0  0  0  0  0  0  0
  2  1  1  0  0  0
  3  2  1  0  0  0
  3  4  2  0  0  0
  4  5  1  0  0  0
  5  1  2  0  0  0
 35 29  1  0  0  0
 19  1  1  0  0  0
 41  4  1  0  0  0
 20 19  1  0  0  0
 20 22  1  0  0  0
 29 30  2  0  0  0
 23 20  1  0  0  0
  6  2  1  0  0  0
 30 26  1  0  0  0
 12  8  1  0  0  0
 24 23  2  0  0  0
 25 23  1  0  0  0
 26 28  1  0  0  0
 26 27  2  0  0  0
  7  6  2  0  0  0
  8  7  1  0  0  0
 36 35  2  0  0  0
 37 35  2  0  0  0
 13 12  2  0  0  0
 13 15  1  0  0  0
 13 16  1  0  0  0
 21 19  2  0  0  0
 38 35  1  0  0  0
 38 39  1  0  0  0
 38 40  1  0  0  0
 27 24  1  0  0  0
 28 25  2  0  0  0
 42 41  1  0  0  0
 43 41  1  0  0  0
 44 41  1  0  0  0
 14 12  1  0  0  0
 14 17  1  0  0  0
 14 18  1  0  0  0
  9  6  1  0  0  0
 31 29  1  0  0  0
 32 30  1  0  0  0
 10 11  1  0  0  0
 10  8  2  0  0  0
 11  9  2  0  0  0
 33 34  1  0  0  0
 33 31  2  0  0  0
 34 32  2  0  0  0
M  CHG 1  13   1
M  END
> <minimizedAffinity>
-13.49357

$$$$
BDB50096105


 44 47  0  0  0  0  0  0  0  0999 V2000
    4.5308    6.4116   23.3788 C   0  0  0  0  0  0  0  0  0  0  0  0
    5.0547    7.4605   24.0463 N   0  0  0  0  0  0  0  0  0  0  0  0
    4.1702    7.9898   24.7858 N   0  0  0  0  0  0  0  0  0  0  0  0
    3.0304    7.3183   24.6439 C   0  0  0  0  0  0  0  0  0  0  0  0
    3.2042    6.2839   23.7457 C   0  0  0  0  0  0  0  0  0  0  0  0
    6.4216    7.9685   23.9904 C   0  0  0  0  0  0  0  0  0  0  0  0
    7.3510    7.6547   24.9565 C   0  0  0  0  0  0  0  0  0  0  0  0
    8.6586    8.1052   24.9502 C   0  0  0  0  0  0  0  0  0  0  0  0
    6.8326    8.7964   22.9459 C   0  0  0  0  0  0  0  0  0  0  0  0
    9.0620    8.9274   23.9080 C   0  0  0  0  0  0  0  0  0  0  0  0
    8.1440    9.2673   22.9142 C   0  0  0  0  0  0  0  0  0  0  0  0
    9.5760    7.6861   26.0590 C   0  0  0  0  0  0  0  0  0  0  0  0
   10.7921    8.0748   26.0928 N   0  0  0  0  0  0  0  0  0  0  0  0
    9.1193    6.8433   27.1069 N   0  0  0  0  0  0  0  0  0  0  0  0
   11.1549    8.6556   25.3950 H   0  0  0  0  0  0  0  0  0  0  0  0
   11.3821    7.7843   26.8385 H   0  0  0  0  0  0  0  0  0  0  0  0
    8.1533    6.5086   27.1201 H   0  0  0  0  0  0  0  0  0  0  0  0
    9.7727    6.5706   27.8577 H   0  0  0  0  0  0  0  0  0  0  0  0
    5.1699    5.4826   22.3967 C   0  0  0  0  0  0  0  0  0  0  0  0
    5.4810    4.1993   22.7234 N   0  0  0  0  0  0  0  0  0  0  0  0
    5.4582    5.8219   21.2688 O   0  0  0  0  0  0  0  0  0  0  0  0
    5.2878    3.8418   23.6263 H   0  0  0  0  0  0  0  0  0  0  0  0
    6.1047    3.3974   21.7605 C   0  0  0  0  0  0  0  0  0  0  0  0
    7.0079    3.9009   20.9186 N   0  0  0  0  0  0  0  0  0  0  0  0
    5.7810    2.1181   21.7137 N   0  0  0  0  0  0  0  0  0  0  0  0
    7.2427    1.8098   19.9046 C   0  0  0  0  0  0  0  0  0  0  0  0
    7.5903    3.1623   19.9882 C   0  0  0  0  0  0  0  0  0  0  0  0
    6.3478    1.3271   20.8169 C   0  0  0  0  0  0  0  0  0  0  0  0
    7.1306    0.5114   17.7058 C   0  0  0  0  0  0  0  0  0  0  0  0
    7.8414    0.9745   18.8466 C   0  0  0  0  0  0  0  0  0  0  0  0
    7.8103   -0.2772   16.7905 C   0  0  0  0  0  0  0  0  0  0  0  0
    9.1706    0.6424   18.9935 C   0  0  0  0  0  0  0  0  0  0  0  0
    9.1459   -0.6157   16.9556 C   0  0  0  0  0  0  0  0  0  0  0  0
    9.8361   -0.1513   18.0620 C   0  0  0  0  0  0  0  0  0  0  0  0
    5.3855    0.8242   17.2762 S   0  0  0  0  0  0  0  0  0  0  0  0
    4.8700    0.2240   15.9834 O   0  0  0  0  0  0  0  0  0  0  0  0
    4.5454    0.2174   18.3807 O   0  0  0  0  0  0  0  0  0  0  0  0
    5.1288    2.5078   17.2950 N   0  0  0  0  0  0  0  0  0  0  0  0
    4.9515    2.9670   18.1598 H   0  0  0  0  0  0  0  0  0  0  0  0
    5.1699    3.0331   16.4519 H   0  0  0  0  0  0  0  0  0  0  0  0
    1.7384    7.6232   25.3411 C   0  0  0  0  0  0  0  0  0  0  0  0
    0.7875    7.9840   24.4055 F   0  0  0  0  0  0  0  0  0  0  0  0
    1.9280    8.6597   26.2296 F   0  0  0  0  0  0  0  0  0  0  0  0
    1.3099    6.5058   26.0248 F   0  0  0  0  0  0  0  0  0  0  0  0
  2  1  1  0  0  0
  3  2  1  0  0  0
  3  4  2  0  0  0
  4  5  1  0  0  0
  5  1  2  0  0  0
 35 29  1  0  0  0
 19  1  1  0  0  0
 41  4  1  0  0  0
 20 19  1  0  0  0
 20 22  1  0  0  0
 29 30  2  0  0  0
 23 20  1  0  0  0
  6  2  1  0  0  0
 30 26  1  0  0  0
 12  8  1  0  0  0
 24 23  2  0  0  0
 25 23  1  0  0  0
 26 28  1  0  0  0
 26 27  2  0  0  0
  7  6  2  0  0  0
  8  7  1  0  0  0
 36 35  2  0  0  0
 37 35  2  0  0  0
 13 12  2  0  0  0
 13 15  1  0  0  0
 13 16  1  0  0  0
 21 19  2  0  0  0
 38 35  1  0  0  0
 38 39  1  0  0  0
 38 40  1  0  0  0
 27 24  1  0  0  0
 28 25  2  0  0  0
 42 41  1  0  0  0
 43 41  1  0  0  0
 44 41  1  0  0  0
 14 12  1  0  0  0
 14 17  1  0  0  0
 14 18  1  0  0  0
  9  6  1  0  0  0
 31 29  1  0  0  0
 32 30  1  0  0  0
 10 11  1  0  0  0
 10  8  2  0  0  0
 11  9  2  0  0  0
 33 34  1  0  0  0
 33 31  2  0  0  0
 34 32  2  0  0  0
M  CHG 1  13   1
M  END
> <minimizedAffinity>
-12.26755

$$$$
BDB50096105


 44 47  0  0  0  0  0  0  0  0999 V2000
    4.6640    6.4019   23.1778 C   0  0  0  0  0  0  0  0  0  0  0  0
    5.2364    7.4426   23.8177 N   0  0  0  0  0  0  0  0  0  0  0  0
    4.3806    8.0246   24.5515 N   0  0  0  0  0  0  0  0  0  0  0  0
    3.2128    7.3981   24.4328 C   0  0  0  0  0  0  0  0  0  0  0  0
    3.3363    6.3377   23.5569 C   0  0  0  0  0  0  0  0  0  0  0  0
    6.6227    7.8919   23.7407 C   0  0  0  0  0  0  0  0  0  0  0  0
    7.1931    8.2800   22.5492 C   0  0  0  0  0  0  0  0  0  0  0  0
    8.4990    8.7167   22.4205 C   0  0  0  0  0  0  0  0  0  0  0  0
    7.4207    7.9419   24.8834 C   0  0  0  0  0  0  0  0  0  0  0  0
    9.2877    8.7657   23.5609 C   0  0  0  0  0  0  0  0  0  0  0  0
    8.7414    8.3763   24.7840 C   0  0  0  0  0  0  0  0  0  0  0  0
    9.0000    9.1180   21.0660 C   0  0  0  0  0  0  0  0  0  0  0  0
    9.6010    8.2826   20.3097 N   0  0  0  0  0  0  0  0  0  0  0  0
    8.8206   10.4412   20.5824 N   0  0  0  0  0  0  0  0  0  0  0  0
    9.7495    7.3598   20.5964 H   0  0  0  0  0  0  0  0  0  0  0  0
    9.9243    8.5714   19.4149 H   0  0  0  0  0  0  0  0  0  0  0  0
    8.3448   11.1428   21.1541 H   0  0  0  0  0  0  0  0  0  0  0  0
    9.1755   10.6899   19.6458 H   0  0  0  0  0  0  0  0  0  0  0  0
    5.2561    5.4255   22.2123 C   0  0  0  0  0  0  0  0  0  0  0  0
    5.8437    4.2722   22.6306 N   0  0  0  0  0  0  0  0  0  0  0  0
    5.2595    5.6119   21.0142 O   0  0  0  0  0  0  0  0  0  0  0  0
    5.8924    4.0446   23.5930 H   0  0  0  0  0  0  0  0  0  0  0  0
    6.4024    3.4208   21.6702 C   0  0  0  0  0  0  0  0  0  0  0  0
    7.2740    3.8715   20.7674 N   0  0  0  0  0  0  0  0  0  0  0  0
    6.0495    2.1485   21.6881 N   0  0  0  0  0  0  0  0  0  0  0  0
    7.4141    1.7392   19.8240 C   0  0  0  0  0  0  0  0  0  0  0  0
    7.7943    3.0855   19.8391 C   0  0  0  0  0  0  0  0  0  0  0  0
    6.5547    1.3117   20.7960 C   0  0  0  0  0  0  0  0  0  0  0  0
    7.1530    0.3151   17.7176 C   0  0  0  0  0  0  0  0  0  0  0  0
    7.9425    0.8516   18.7713 C   0  0  0  0  0  0  0  0  0  0  0  0
    7.7724   -0.5169   16.7980 C   0  0  0  0  0  0  0  0  0  0  0  0
    9.2842    0.5441   18.8320 C   0  0  0  0  0  0  0  0  0  0  0  0
    9.1220   -0.8295   16.8767 C   0  0  0  0  0  0  0  0  0  0  0  0
    9.8883   -0.2940   17.8976 C   0  0  0  0  0  0  0  0  0  0  0  0
    5.3750    0.5821   17.4092 S   0  0  0  0  0  0  0  0  0  0  0  0
    4.4308    0.3933   18.5797 O   0  0  0  0  0  0  0  0  0  0  0  0
    5.2160    2.0243   16.9748 O   0  0  0  0  0  0  0  0  0  0  0  0
    4.9094   -0.4070   16.1032 N   0  0  0  0  0  0  0  0  0  0  0  0
    5.0717   -0.0973   15.1715 H   0  0  0  0  0  0  0  0  0  0  0  0
    4.4919   -1.2944   16.2670 H   0  0  0  0  0  0  0  0  0  0  0  0
    1.9402    7.7720   25.1321 C   0  0  0  0  0  0  0  0  0  0  0  0
    2.1532    8.9040   25.8957 F   0  0  0  0  0  0  0  0  0  0  0  0
    1.5403    6.7345   25.9466 F   0  0  0  0  0  0  0  0  0  0  0  0
    0.9593    8.0257   24.1976 F   0  0  0  0  0  0  0  0  0  0  0  0
  2  1  1  0  0  0
  3  2  1  0  0  0
  3  4  2  0  0  0
  4  5  1  0  0  0
  5  1  2  0  0  0
 35 29  1  0  0  0
 19  1  1  0  0  0
 41  4  1  0  0  0
 20 19  1  0  0  0
 20 22  1  0  0  0
 29 30  2  0  0  0
 23 20  1  0  0  0
  6  2  1  0  0  0
 30 26  1  0  0  0
 12  8  1  0  0  0
 24 23  2  0  0  0
 25 23  1  0  0  0
 26 28  1  0  0  0
 26 27  2  0  0  0
  7  6  2  0  0  0
  8  7  1  0  0  0
 36 35  2  0  0  0
 37 35  2  0  0  0
 13 12  2  0  0  0
 13 15  1  0  0  0
 13 16  1  0  0  0
 21 19  2  0  0  0
 38 35  1  0  0  0
 38 39  1  0  0  0
 38 40  1  0  0  0
 27 24  1  0  0  0
 28 25  2  0  0  0
 42 41  1  0  0  0
 43 41  1  0  0  0
 44 41  1  0  0  0
 14 12  1  0  0  0
 14 17  1  0  0  0
 14 18  1  0  0  0
  9  6  1  0  0  0
 31 29  1  0  0  0
 32 30  1  0  0  0
 10 11  1  0  0  0
 10  8  2  0  0  0
 11  9  2  0  0  0
 33 34  1  0  0  0
 33 31  2  0  0  0
 34 32  2  0  0  0
M  CHG 1  13   1
M  END
> <minimizedAffinity>
-12.03912

$$$$
