ZINC14962480
 OpenBabel07192215303D

 42 47  0  0  0  0  0  0  0  0999 V2000
    7.8766    0.9164   18.8370 C   0  0  0  0  0  0  0  0  0  0  0  0
    7.1487    0.2578   17.8432 C   0  0  0  0  0  0  0  0  0  0  0  0
    7.8451   -0.5021   16.9124 C   0  0  0  0  0  0  0  0  0  0  0  0
    9.2284   -0.5800   17.0010 C   0  0  0  0  0  0  0  0  0  0  0  0
    9.8836    0.0550   17.9526 N   0  0  0  0  0  0  0  0  0  0  0  0
    9.2643    0.7912   18.8526 C   0  0  0  0  0  0  0  0  0  0  0  0
    7.6984    6.2663   20.7576 C   0  0  0  0  0  0  0  0  0  0  0  0
    6.8957    5.2887   21.3135 C   0  0  0  0  0  0  0  0  0  0  0  0
    6.8219    3.8602   20.9330 C   0  0  0  0  0  0  0  0  0  0  0  0
    7.4767    3.0966   19.9748 C   0  0  0  0  0  0  0  0  0  0  0  0
    7.1832    1.7416   19.8568 C   0  0  0  0  0  0  0  0  0  0  0  0
    6.2307    1.1617   20.6965 C   0  0  0  0  0  0  0  0  0  0  0  0
    5.5863    1.9180   21.6503 C   0  0  0  0  0  0  0  0  0  0  0  0
    5.8694    3.2747   21.7797 C   0  0  0  0  0  0  0  0  0  0  0  0
    5.3670    4.2439   22.6385 N   0  0  0  0  0  0  0  0  0  0  0  0
    5.9319    5.4415   22.4107 C   0  0  0  0  0  0  0  0  0  0  0  0
    5.6874    6.4737   23.0099 O   0  0  0  0  0  0  0  0  0  0  0  0
    4.6521    4.0669   23.3586 H   0  0  0  0  0  0  0  0  0  0  0  0
    6.0108    8.6639   19.8523 C   0  0  0  0  0  0  0  0  0  0  0  0
    6.9918    8.6448   20.9402 N   0  0  0  0  0  0  0  0  0  0  0  0
    7.3135    9.6965   21.7349 C   0  0  0  0  0  0  0  0  0  0  0  0
    8.2615    9.3048   22.6224 C   0  0  0  0  0  0  0  0  0  0  0  0
    8.5442    7.9586   22.3843 C   0  0  0  0  0  0  0  0  0  0  0  0
    7.7397    7.5544   21.3299 C   0  0  0  0  0  0  0  0  0  0  0  0
    7.1806   -1.1615   15.9270 O   0  0  0  0  0  0  0  0  0  0  0  0
    5.8887   -0.6651   15.5711 C   0  0  0  0  0  0  0  0  0  0  0  0
    6.0286    0.3569   14.4411 C   0  0  1  0  0  0  0  0  0  0  0  0
    6.1507   -0.3266   13.1413 N   0  3  0  0  0  0  0  0  0  0  0  0
    5.3108   -0.9015   12.9829 H   0  0  0  0  0  0  0  0  0  0  0  0
    6.9806   -0.9364   13.1579 H   0  0  0  0  0  0  0  0  0  0  0  0
    6.2444    0.3677   12.3864 H   0  0  0  0  0  0  0  0  0  0  0  0
    4.7935    1.2594   14.4139 C   0  0  0  0  0  0  0  0  0  0  0  0
    5.0638    2.5052   15.2176 C   0  0  0  0  0  0  0  0  0  0  0  0
    5.8255    3.5459   14.8453 C   0  0  0  0  0  0  0  0  0  0  0  0
    5.8352    4.4936   15.8324 N   0  0  0  0  0  0  0  0  0  0  0  0
    5.0672    4.0714   16.8943 C   0  0  0  0  0  0  0  0  0  0  0  0
    4.5503    2.8073   16.5558 C   0  0  0  0  0  0  0  0  0  0  0  0
    3.7248    2.1290   17.4543 C   0  0  0  0  0  0  0  0  0  0  0  0
    3.4228    2.6973   18.6599 C   0  0  0  0  0  0  0  0  0  0  0  0
    3.9305    3.9437   18.9987 C   0  0  0  0  0  0  0  0  0  0  0  0
    4.7469    4.6307   18.1268 C   0  0  0  0  0  0  0  0  0  0  0  0
    6.3417    5.3895   15.7876 H   0  0  0  0  0  0  0  0  0  0  0  0
  1  6  2  0  0  0  0
  1  2  1  0  0  0  0
  2  3  2  0  0  0  0
  3  4  1  0  0  0  0
  3 25  1  0  0  0  0
  4  5  2  0  0  0  0
  5  6  1  0  0  0  0
  7  8  2  0  0  0  0
  8 16  1  0  0  0  0
  8  9  1  0  0  0  0
  9 14  2  0  0  0  0
  9 10  1  0  0  0  0
 10 11  2  0  0  0  0
 11 12  1  0  0  0  0
 11  1  1  0  0  0  0
 12 13  2  0  0  0  0
 13 14  1  0  0  0  0
 14 15  1  0  0  0  0
 15 16  1  0  0  0  0
 15 18  1  0  0  0  0
 16 17  2  0  0  0  0
 19 20  1  0  0  0  0
 20 24  1  0  0  0  0
 20 21  1  0  0  0  0
 21 22  2  0  0  0  0
 22 23  1  0  0  0  0
 23 24  2  0  0  0  0
 24  7  1  0  0  0  0
 25 26  1  0  0  0  0
 27 26  1  1  0  0  0
 27 32  1  0  0  0  0
 27 28  1  0  0  0  0
 28 29  1  0  0  0  0
 28 30  1  0  0  0  0
 28 31  1  0  0  0  0
 32 33  1  0  0  0  0
 33 37  1  0  0  0  0
 33 34  2  0  0  0  0
 34 35  1  0  0  0  0
 35 36  1  0  0  0  0
 35 42  1  0  0  0  0
 36 41  2  0  0  0  0
 36 37  1  0  0  0  0
 37 38  2  0  0  0  0
 38 39  1  0  0  0  0
 39 40  2  0  0  0  0
 40 41  1  0  0  0  0
M  CHG  1  28   1
M  END
>  <minimizedAffinity>
-10.44671

$$$$
