ZINC08636149
 OpenBabel07192215303D

 40 45  0  0  0  0  0  0  0  0999 V2000
    4.5564    2.7367   19.7564 C   0  0  2  0  0  0  0  0  0  0  0  0
    5.1180    1.9445   18.5676 C   0  0  0  0  0  0  0  0  0  0  0  0
    6.5902    1.7201   18.8049 C   0  0  0  0  0  0  0  0  0  0  0  0
    7.4919    0.7953   18.1551 C   0  0  0  0  0  0  0  0  0  0  0  0
    7.3141   -0.1536   17.1433 C   0  0  0  0  0  0  0  0  0  0  0  0
    8.4207   -0.8723   16.7641 C   0  0  0  0  0  0  0  0  0  0  0  0
    9.6612   -0.6773   17.3489 C   0  0  0  0  0  0  0  0  0  0  0  0
    9.8661    0.2538   18.3522 C   0  0  0  0  0  0  0  0  0  0  0  0
    8.7607    0.9986   18.7580 C   0  0  0  0  0  0  0  0  0  0  0  0
    8.6122    1.9762   19.7002 N   0  0  0  0  0  0  0  0  0  0  0  0
    7.3125    2.4026   19.7236 C   0  0  0  0  0  0  0  0  0  0  0  0
    6.7124    3.4652   20.6106 C   0  0  1  0  0  0  0  0  0  0  0  0
    4.7644    4.8751   20.8909 C   0  0  2  0  0  0  0  0  0  0  0  0
    5.6407    6.1268   20.9874 C   0  0  0  0  0  0  0  0  0  0  0  0
    7.0078    5.7498   21.5637 C   0  0  1  0  0  0  0  0  0  0  0  0
    7.6493    4.6721   20.6841 C   0  0  0  0  0  0  0  0  0  0  0  0
    5.4370    3.9042   20.0026 N   0  0  2  0  0  0  0  0  0  0  0  0
    9.3654    2.3378   20.3024 H   0  0  0  0  0  0  0  0  0  0  0  0
    3.4283    5.2408   20.2975 C   0  0  0  0  0  0  0  0  0  0  0  0
    2.2675    5.0064   21.0112 C   0  0  0  0  0  0  0  0  0  0  0  0
    1.0418    5.3416   20.4675 C   0  0  0  0  0  0  0  0  0  0  0  0
    0.9757    5.9115   19.2098 C   0  0  0  0  0  0  0  0  0  0  0  0
    2.1367    6.1461   18.4953 C   0  0  0  0  0  0  0  0  0  0  0  0
    3.3640    5.8155   19.0425 C   0  0  0  0  0  0  0  0  0  0  0  0
    2.0545    6.8612   16.9155 Cl  0  0  0  0  0  0  0  0  0  0  0  0
    7.8793    6.9398   21.5854 N   0  3  0  0  0  0  0  0  0  0  0  0
    8.8122    6.6735   21.9314 H   0  0  0  0  0  0  0  0  0  0  0  0
    7.9685    7.3162   20.6308 H   0  0  0  0  0  0  0  0  0  0  0  0
    7.3093    7.9759   22.4670 C   0  0  0  0  0  0  0  0  0  0  0  0
    8.2912    9.1451   22.5667 C   0  0  0  0  0  0  0  0  0  0  0  0
    9.2208    8.9225   23.7318 C   0  0  0  0  0  0  0  0  0  0  0  0
    8.9692    8.1551   24.8094 C   0  0  0  0  0  0  0  0  0  0  0  0
   10.0733    8.2298   25.6151 N   0  0  0  0  0  0  0  0  0  0  0  0
   10.9580    9.0480   25.0057 C   0  0  0  0  0  0  0  0  0  0  0  0
   10.4413    9.4585   23.8798 N   0  0  0  0  0  0  0  0  0  0  0  0
   10.2046    7.7512   26.5177 H   0  0  0  0  0  0  0  0  0  0  0  0
    4.4970    1.8460   20.9705 C   0  0  0  0  0  0  0  0  0  0  0  0
    4.5902    0.6478   20.8459 O   0  0  0  0  0  0  0  0  0  0  0  0
    3.2910    1.8284   23.0261 C   0  0  0  0  0  0  0  0  0  0  0  0
    4.3406    2.3837   22.1904 O   0  0  0  0  0  0  0  0  0  0  0  0
  1 37  1  1  0  0  0
  1  2  1  0  0  0  0
  1 17  1  0  0  0  0
  2  3  1  0  0  0  0
  3 11  2  0  0  0  0
  3  4  1  0  0  0  0
  4  9  1  0  0  0  0
  4  5  2  0  0  0  0
  5  6  1  0  0  0  0
  6  7  2  0  0  0  0
  7  8  1  0  0  0  0
  8  9  2  0  0  0  0
  9 10  1  0  0  0  0
 10 11  1  0  0  0  0
 10 18  1  0  0  0  0
 11 12  1  0  0  0  0
 12 16  1  6  0  0  0
 12 17  1  0  0  0  0
 13 14  1  0  0  0  0
 13 19  1  6  0  0  0
 13 17  1  0  0  0  0
 14 15  1  0  0  0  0
 15 16  1  0  0  0  0
 15 26  1  6  0  0  0
 19 24  2  0  0  0  0
 19 20  1  0  0  0  0
 20 21  2  0  0  0  0
 21 22  1  0  0  0  0
 22 23  2  0  0  0  0
 23 24  1  0  0  0  0
 23 25  1  0  0  0  0
 26 27  1  0  0  0  0
 26 28  1  0  0  0  0
 29 30  1  0  0  0  0
 29 26  1  0  0  0  0
 30 31  1  0  0  0  0
 31 35  1  0  0  0  0
 31 32  2  0  0  0  0
 32 33  1  0  0  0  0
 33 34  1  0  0  0  0
 33 36  1  0  0  0  0
 34 35  2  0  0  0  0
 37 38  2  0  0  0  0
 39 40  1  0  0  0  0
 40 37  1  0  0  0  0
M  CHG  1  26   1
M  END
>  <minimizedAffinity>
-9.45707

$$$$
