BDB50142111
 OpenBabel07192215303D

 43 47  0  0  0  0  0  0  0  0999 V2000
    4.8556    4.2348   22.6090 C   0  0  0  0  0  0  0  0  0  0  0  0
    4.9750    5.5767   22.5160 N   0  0  0  0  0  0  0  0  0  0  0  0
    4.1008    3.6863   23.4191 O   0  0  0  0  0  0  0  0  0  0  0  0
    5.5835    5.8976   21.8803 H   0  0  0  0  0  0  0  0  0  0  0  0
    4.8784    7.3362   24.1917 C   0  0  0  0  0  0  0  0  0  0  0  0
    4.2303    6.4782   23.3022 C   0  0  0  0  0  0  0  0  0  0  0  0
    4.1236    8.2194   24.9562 C   0  0  0  0  0  0  0  0  0  0  0  0
    2.8439    6.5194   23.1925 C   0  0  0  0  0  0  0  0  0  0  0  0
    2.7392    8.2544   24.8408 C   0  0  0  0  0  0  0  0  0  0  0  0
    2.0953    7.4023   23.9561 C   0  0  0  0  0  0  0  0  0  0  0  0
    1.8211    9.3519   25.7924 Cl  0  0  0  0  0  0  0  0  0  0  0  0
    6.3697    7.3327   24.3421 C   0  0  0  0  0  0  0  0  0  0  0  0
    6.9962    8.0832   25.3209 N   0  0  0  0  0  0  0  0  0  0  0  0
    7.0870    6.6663   23.5998 O   0  0  0  0  0  0  0  0  0  0  0  0
    6.4676    8.6412   25.9439 H   0  0  0  0  0  0  0  0  0  0  0  0
    8.3978    8.0418   25.4200 C   0  0  0  0  0  0  0  0  0  0  0  0
    8.9770    7.3138   26.3710 N   0  0  0  0  0  0  0  0  0  0  0  0
   10.2950    7.2447   26.5039 C   0  0  0  0  0  0  0  0  0  0  0  0
   11.1213    7.9448   25.6365 C   0  0  0  0  0  0  0  0  0  0  0  0
    9.1730    8.7638   24.5225 C   0  0  0  0  0  0  0  0  0  0  0  0
   12.8291    7.8546   25.8100 Cl  0  0  0  0  0  0  0  0  0  0  0  0
   10.5559    8.7160   24.6307 C   0  0  0  0  0  0  0  0  0  0  0  0
    5.6239    3.4156   21.7278 C   0  0  0  0  0  0  0  0  0  0  0  0
    7.1494    1.9710   19.8887 C   0  0  0  0  0  0  0  0  0  0  0  0
    5.8757    2.0579   21.9371 C   0  0  0  0  0  0  0  0  0  0  0  0
    6.1342    4.0438   20.6220 C   0  0  0  0  0  0  0  0  0  0  0  0
    6.6264    1.3268   21.0154 C   0  0  0  0  0  0  0  0  0  0  0  0
    6.8845    3.3014   19.7427 C   0  0  0  0  0  0  0  0  0  0  0  0
    7.3415    0.7534   17.5684 C   0  0  0  0  0  0  0  0  0  0  0  0
    7.8736    1.1976   18.8184 C   0  0  0  0  0  0  0  0  0  0  0  0
    8.1605   -0.0521   16.7839 C   0  0  0  0  0  0  0  0  0  0  0  0
    9.1707    0.8462   19.1615 C   0  0  0  0  0  0  0  0  0  0  0  0
    9.9761    0.0727   18.3356 C   0  0  0  0  0  0  0  0  0  0  0  0
    9.4595   -0.3865   17.1384 C   0  0  0  0  0  0  0  0  0  0  0  0
    5.9679    1.0058   16.8788 N   0  0  0  0  0  0  0  0  0  0  0  0
    3.4497    2.3579   17.1687 C   0  0  0  0  0  0  0  0  0  0  0  0
    4.8463    0.1899   17.3178 C   0  0  0  0  0  0  0  0  0  0  0  0
    5.5325    2.0320   15.9272 C   0  0  0  0  0  0  0  0  0  0  0  0
    3.8836    1.1679   18.0938 C   0  0  0  0  0  0  0  0  0  0  0  0
    4.6814    3.0636   16.6482 C   0  0  0  0  0  0  0  0  0  0  0  0
    2.6367    3.3831   17.9099 C   0  0  0  0  0  0  0  0  0  0  0  0
    1.5983    3.8281   17.4092 O   0  0  0  0  0  0  0  0  0  0  0  0
    2.9618    3.7045   19.1919 O   0  5  0  0  0  0  0  0  0  0  0  0
  1  2  1  0  0  0  0
  2  6  1  0  0  0  0
  2  4  1  0  0  0  0
  3  1  2  0  0  0  0
  6  5  2  0  0  0  0
  7  5  1  0  0  0  0
  8  6  1  0  0  0  0
  9  7  2  0  0  0  0
 10  9  1  0  0  0  0
 10  8  2  0  0  0  0
 11  9  1  0  0  0  0
 12  5  1  0  0  0  0
 13 12  1  0  0  0  0
 13 15  1  0  0  0  0
 14 12  2  0  0  0  0
 16 13  1  0  0  0  0
 17 16  2  0  0  0  0
 18 17  1  0  0  0  0
 18 19  2  0  0  0  0
 19 22  1  0  0  0  0
 20 16  1  0  0  0  0
 21 19  1  0  0  0  0
 22 20  2  0  0  0  0
 23  1  1  0  0  0  0
 24 28  1  0  0  0  0
 24 27  2  0  0  0  0
 25 23  2  0  0  0  0
 26 23  1  0  0  0  0
 27 25  1  0  0  0  0
 28 26  2  0  0  0  0
 29 30  2  0  0  0  0
 30 24  1  0  0  0  0
 31 29  1  0  0  0  0
 31 34  2  0  0  0  0
 32 30  1  0  0  0  0
 33 32  2  0  0  0  0
 34 33  1  0  0  0  0
 35 29  1  0  0  0  0
 36 40  1  0  0  0  0
 37 35  1  0  0  0  0
 38 35  1  0  0  0  0
 39 37  1  0  0  0  0
 39 36  1  0  0  0  0
 40 38  1  0  0  0  0
 41 36  1  0  0  0  0
 42 41  2  0  0  0  0
 43 41  1  0  0  0  0
M  CHG  1  43  -1
M  END
>  <minimizedAffinity>
-11.47872

$$$$
