BDB50142111


 43 47  0  0  0  0  0  0  0  0999 V2000
    4.8556    4.2348   22.6090 C   0  0  0  0  0  0  0  0  0  0  0  0
    4.9750    5.5767   22.5160 N   0  0  0  0  0  0  0  0  0  0  0  0
    4.1008    3.6863   23.4191 O   0  0  0  0  0  0  0  0  0  0  0  0
    5.5835    5.8976   21.8803 H   0  0  0  0  0  0  0  0  0  0  0  0
    4.8784    7.3362   24.1917 C   0  0  0  0  0  0  0  0  0  0  0  0
    4.2303    6.4782   23.3022 C   0  0  0  0  0  0  0  0  0  0  0  0
    4.1236    8.2194   24.9562 C   0  0  0  0  0  0  0  0  0  0  0  0
    2.8439    6.5194   23.1925 C   0  0  0  0  0  0  0  0  0  0  0  0
    2.7392    8.2544   24.8408 C   0  0  0  0  0  0  0  0  0  0  0  0
    2.0953    7.4023   23.9561 C   0  0  0  0  0  0  0  0  0  0  0  0
    1.8211    9.3519   25.7924 Cl  0  0  0  0  0  0  0  0  0  0  0  0
    6.3697    7.3327   24.3421 C   0  0  0  0  0  0  0  0  0  0  0  0
    6.9962    8.0832   25.3209 N   0  0  0  0  0  0  0  0  0  0  0  0
    7.0870    6.6663   23.5998 O   0  0  0  0  0  0  0  0  0  0  0  0
    6.4676    8.6412   25.9439 H   0  0  0  0  0  0  0  0  0  0  0  0
    8.3978    8.0418   25.4200 C   0  0  0  0  0  0  0  0  0  0  0  0
    8.9770    7.3138   26.3710 N   0  0  0  0  0  0  0  0  0  0  0  0
   10.2950    7.2447   26.5039 C   0  0  0  0  0  0  0  0  0  0  0  0
   11.1213    7.9448   25.6365 C   0  0  0  0  0  0  0  0  0  0  0  0
    9.1730    8.7638   24.5225 C   0  0  0  0  0  0  0  0  0  0  0  0
   12.8291    7.8546   25.8100 Cl  0  0  0  0  0  0  0  0  0  0  0  0
   10.5559    8.7160   24.6307 C   0  0  0  0  0  0  0  0  0  0  0  0
    5.6239    3.4156   21.7278 C   0  0  0  0  0  0  0  0  0  0  0  0
    7.1494    1.9710   19.8887 C   0  0  0  0  0  0  0  0  0  0  0  0
    5.8757    2.0579   21.9371 C   0  0  0  0  0  0  0  0  0  0  0  0
    6.1342    4.0438   20.6220 C   0  0  0  0  0  0  0  0  0  0  0  0
    6.6264    1.3268   21.0154 C   0  0  0  0  0  0  0  0  0  0  0  0
    6.8845    3.3014   19.7427 C   0  0  0  0  0  0  0  0  0  0  0  0
    7.3415    0.7534   17.5684 C   0  0  0  0  0  0  0  0  0  0  0  0
    7.8736    1.1976   18.8184 C   0  0  0  0  0  0  0  0  0  0  0  0
    8.1605   -0.0521   16.7839 C   0  0  0  0  0  0  0  0  0  0  0  0
    9.1707    0.8462   19.1615 C   0  0  0  0  0  0  0  0  0  0  0  0
    9.9761    0.0727   18.3356 C   0  0  0  0  0  0  0  0  0  0  0  0
    9.4595   -0.3865   17.1384 C   0  0  0  0  0  0  0  0  0  0  0  0
    5.9679    1.0058   16.8788 N   0  0  0  0  0  0  0  0  0  0  0  0
    3.4497    2.3579   17.1687 C   0  0  0  0  0  0  0  0  0  0  0  0
    4.8463    0.1899   17.3178 C   0  0  0  0  0  0  0  0  0  0  0  0
    5.5325    2.0320   15.9272 C   0  0  0  0  0  0  0  0  0  0  0  0
    3.8836    1.1679   18.0938 C   0  0  0  0  0  0  0  0  0  0  0  0
    4.6814    3.0636   16.6482 C   0  0  0  0  0  0  0  0  0  0  0  0
    2.6367    3.3831   17.9099 C   0  0  0  0  0  0  0  0  0  0  0  0
    1.5983    3.8281   17.4092 O   0  0  0  0  0  0  0  0  0  0  0  0
    2.9618    3.7045   19.1919 O   0  0  0  0  0  0  0  0  0  0  0  0
 12  5  1  0  0  0
  6  5  2  0  0  0
 35 29  1  0  0  0
  1  2  1  0  0  0
 13 12  1  0  0  0
 13 15  1  0  0  0
  2  6  1  0  0  0
  2  4  1  0  0  0
 29 30  2  0  0  0
 30 24  1  0  0  0
 41 36  1  0  0  0
 16 13  1  0  0  0
 17 16  2  0  0  0
 23  1  1  0  0  0
  7  5  1  0  0  0
 24 28  1  0  0  0
 24 27  2  0  0  0
 14 12  2  0  0  0
 36 40  1  0  0  0
 37 35  1  0  0  0
 38 35  1  0  0  0
  3  1  2  0  0  0
 42 41  2  0  0  0
  8  6  1  0  0  0
 25 23  2  0  0  0
 26 23  1  0  0  0
 27 25  1  0  0  0
 28 26  2  0  0  0
 39 37  1  0  0  0
 39 36  1  0  0  0
 40 38  1  0  0  0
  9  7  2  0  0  0
 18 17  1  0  0  0
 18 19  2  0  0  0
 43 41  1  0  0  0
 19 22  1  0  0  0
 20 16  1  0  0  0
 10  9  1  0  0  0
 10  8  2  0  0  0
 11  9  1  0  0  0
 21 19  1  0  0  0
 22 20  2  0  0  0
 31 29  1  0  0  0
 31 34  2  0  0  0
 32 30  1  0  0  0
 33 32  2  0  0  0
 34 33  1  0  0  0
M  CHG 1  43  -1
M  END
> <minimizedAffinity>
-11.47872

$$$$
BDB50142111


 43 47  0  0  0  0  0  0  0  0999 V2000
    4.8153    4.1820   22.4865 C   0  0  0  0  0  0  0  0  0  0  0  0
    4.8851    5.5223   22.3368 N   0  0  0  0  0  0  0  0  0  0  0  0
    4.0878    3.6412   23.3263 O   0  0  0  0  0  0  0  0  0  0  0  0
    5.4762    5.8379   21.6823 H   0  0  0  0  0  0  0  0  0  0  0  0
    4.7361    7.3119   23.9764 C   0  0  0  0  0  0  0  0  0  0  0  0
    4.1151    6.4285   23.0924 C   0  0  0  0  0  0  0  0  0  0  0  0
    3.9565    8.1992   24.7105 C   0  0  0  0  0  0  0  0  0  0  0  0
    2.7304    6.4493   22.9577 C   0  0  0  0  0  0  0  0  0  0  0  0
    2.5740    8.2137   24.5703 C   0  0  0  0  0  0  0  0  0  0  0  0
    1.9570    7.3365   23.6910 C   0  0  0  0  0  0  0  0  0  0  0  0
    1.6251    9.3168   25.4844 Cl  0  0  0  0  0  0  0  0  0  0  0  0
    6.2245    7.3310   24.1529 C   0  0  0  0  0  0  0  0  0  0  0  0
    6.8324    8.1959   25.0451 N   0  0  0  0  0  0  0  0  0  0  0  0
    6.9556    6.5820   23.5095 O   0  0  0  0  0  0  0  0  0  0  0  0
    6.2921    8.8234   25.5866 H   0  0  0  0  0  0  0  0  0  0  0  0
    8.2320    8.1709   25.1736 C   0  0  0  0  0  0  0  0  0  0  0  0
    8.7982    7.4780   26.1582 N   0  0  0  0  0  0  0  0  0  0  0  0
   10.1137    7.4256   26.3197 C   0  0  0  0  0  0  0  0  0  0  0  0
   10.9513    8.1066   25.4479 C   0  0  0  0  0  0  0  0  0  0  0  0
    9.0190    8.8724   24.2701 C   0  0  0  0  0  0  0  0  0  0  0  0
   12.6560    8.0381   25.6584 Cl  0  0  0  0  0  0  0  0  0  0  0  0
   10.3997    8.8411   24.4075 C   0  0  0  0  0  0  0  0  0  0  0  0
    5.6052    3.3547   21.6324 C   0  0  0  0  0  0  0  0  0  0  0  0
    7.1856    1.8960   19.8517 C   0  0  0  0  0  0  0  0  0  0  0  0
    5.7944    1.9841   21.8222 C   0  0  0  0  0  0  0  0  0  0  0  0
    6.2038    3.9883   20.5750 C   0  0  0  0  0  0  0  0  0  0  0  0
    6.5723    1.2464   20.9288 C   0  0  0  0  0  0  0  0  0  0  0  0
    6.9784    3.2385   19.7237 C   0  0  0  0  0  0  0  0  0  0  0  0
    7.4382    0.6258   17.5656 C   0  0  0  0  0  0  0  0  0  0  0  0
    7.9446    1.1205   18.8074 C   0  0  0  0  0  0  0  0  0  0  0  0
    8.2907   -0.1710   16.8085 C   0  0  0  0  0  0  0  0  0  0  0  0
    9.2501    0.8231   19.1690 C   0  0  0  0  0  0  0  0  0  0  0  0
   10.0882    0.0567   18.3696 C   0  0  0  0  0  0  0  0  0  0  0  0
    9.5974   -0.4511   17.1812 C   0  0  0  0  0  0  0  0  0  0  0  0
    6.0624    0.8127   16.8598 N   0  0  0  0  0  0  0  0  0  0  0  0
    4.7569    0.8017   14.3007 C   0  0  0  0  0  0  0  0  0  0  0  0
    5.7919    2.1147   16.2699 C   0  0  0  0  0  0  0  0  0  0  0  0
    4.9940   -0.1403   16.5462 C   0  0  0  0  0  0  0  0  0  0  0  0
    5.8101    1.8897   14.7096 C   0  0  0  0  0  0  0  0  0  0  0  0
    5.0311   -0.4741   15.0644 C   0  0  0  0  0  0  0  0  0  0  0  0
    4.8331    0.4624   12.8376 C   0  0  0  0  0  0  0  0  0  0  0  0
    5.1306    1.3356   12.0155 O   0  0  0  0  0  0  0  0  0  0  0  0
    4.7255   -0.8344   12.4387 O   0  0  0  0  0  0  0  0  0  0  0  0
 12  5  1  0  0  0
  6  5  2  0  0  0
 35 29  1  0  0  0
  1  2  1  0  0  0
 13 12  1  0  0  0
 13 15  1  0  0  0
  2  6  1  0  0  0
  2  4  1  0  0  0
 29 30  2  0  0  0
 30 24  1  0  0  0
 41 36  1  0  0  0
 16 13  1  0  0  0
 17 16  2  0  0  0
 23  1  1  0  0  0
  7  5  1  0  0  0
 24 28  1  0  0  0
 24 27  2  0  0  0
 14 12  2  0  0  0
 36 40  1  0  0  0
 37 35  1  0  0  0
 38 35  1  0  0  0
  3  1  2  0  0  0
 42 41  2  0  0  0
  8  6  1  0  0  0
 25 23  2  0  0  0
 26 23  1  0  0  0
 27 25  1  0  0  0
 28 26  2  0  0  0
 39 37  1  0  0  0
 39 36  1  0  0  0
 40 38  1  0  0  0
  9  7  2  0  0  0
 18 17  1  0  0  0
 18 19  2  0  0  0
 43 41  1  0  0  0
 19 22  1  0  0  0
 20 16  1  0  0  0
 10  9  1  0  0  0
 10  8  2  0  0  0
 11  9  1  0  0  0
 21 19  1  0  0  0
 22 20  2  0  0  0
 31 29  1  0  0  0
 31 34  2  0  0  0
 32 30  1  0  0  0
 33 32  2  0  0  0
 34 33  1  0  0  0
M  CHG 1  43  -1
M  END
> <minimizedAffinity>
-11.32579

$$$$
BDB50142111


 43 47  0  0  0  0  0  0  0  0999 V2000
    4.7948    4.2696   22.5758 C   0  0  0  0  0  0  0  0  0  0  0  0
    4.8463    5.6075   22.3988 N   0  0  0  0  0  0  0  0  0  0  0  0
    4.1029    3.7382   23.4509 O   0  0  0  0  0  0  0  0  0  0  0  0
    5.4106    5.9160   21.7179 H   0  0  0  0  0  0  0  0  0  0  0  0
    4.7343    7.3854   24.0540 C   0  0  0  0  0  0  0  0  0  0  0  0
    4.0949    6.5208   23.1645 C   0  0  0  0  0  0  0  0  0  0  0  0
    3.9730    8.2803   24.7980 C   0  0  0  0  0  0  0  0  0  0  0  0
    2.7103    6.5674   23.0345 C   0  0  0  0  0  0  0  0  0  0  0  0
    2.5905    8.3205   24.6625 C   0  0  0  0  0  0  0  0  0  0  0  0
    1.9552    7.4620   23.7779 C   0  0  0  0  0  0  0  0  0  0  0  0
    1.6643    9.4326   25.5889 Cl  0  0  0  0  0  0  0  0  0  0  0  0
    6.2233    7.3765   24.2257 C   0  0  0  0  0  0  0  0  0  0  0  0
    6.8564    8.2758   25.0649 N   0  0  0  0  0  0  0  0  0  0  0  0
    6.9327    6.5731   23.6252 O   0  0  0  0  0  0  0  0  0  0  0  0
    6.3343    8.9473   25.5703 H   0  0  0  0  0  0  0  0  0  0  0  0
    8.2553    8.2224   25.1915 C   0  0  0  0  0  0  0  0  0  0  0  0
    8.8089    7.5095   26.1690 N   0  0  0  0  0  0  0  0  0  0  0  0
   10.1233    7.4300   26.3284 C   0  0  0  0  0  0  0  0  0  0  0  0
   10.9731    8.1027   25.4620 C   0  0  0  0  0  0  0  0  0  0  0  0
    9.0549    8.9168   24.2936 C   0  0  0  0  0  0  0  0  0  0  0  0
   12.6764    7.9991   25.6698 Cl  0  0  0  0  0  0  0  0  0  0  0  0
   10.4350    8.8574   24.4292 C   0  0  0  0  0  0  0  0  0  0  0  0
    5.5617    3.4336   21.7095 C   0  0  0  0  0  0  0  0  0  0  0  0
    7.1024    1.9583   19.9077 C   0  0  0  0  0  0  0  0  0  0  0  0
    5.7087    2.0548   21.8760 C   0  0  0  0  0  0  0  0  0  0  0  0
    6.1824    4.0668   20.6646 C   0  0  0  0  0  0  0  0  0  0  0  0
    6.4665    1.3092   20.9719 C   0  0  0  0  0  0  0  0  0  0  0  0
    6.9365    3.3084   19.8024 C   0  0  0  0  0  0  0  0  0  0  0  0
    7.2961    0.6270   17.6509 C   0  0  0  0  0  0  0  0  0  0  0  0
    7.8406    1.1781   18.8521 C   0  0  0  0  0  0  0  0  0  0  0  0
    8.1418   -0.1622   16.8781 C   0  0  0  0  0  0  0  0  0  0  0  0
    9.1716    0.9392   19.1600 C   0  0  0  0  0  0  0  0  0  0  0  0
    9.9999    0.1785   18.3449 C   0  0  0  0  0  0  0  0  0  0  0  0
    9.4738   -0.3835   17.1966 C   0  0  0  0  0  0  0  0  0  0  0  0
    5.8831    0.7423   17.0057 N   0  0  0  0  0  0  0  0  0  0  0  0
    3.3971   -0.6454   16.6218 C   0  0  0  0  0  0  0  0  0  0  0  0
    5.6929    0.1096   15.7096 C   0  0  0  0  0  0  0  0  0  0  0  0
    4.6189    1.2727   17.5239 C   0  0  0  0  0  0  0  0  0  0  0  0
    4.7420   -1.1207   15.9695 C   0  0  0  0  0  0  0  0  0  0  0  0
    3.6979    0.1210   17.8899 C   0  0  0  0  0  0  0  0  0  0  0  0
    2.5155   -1.8014   17.0063 C   0  0  0  0  0  0  0  0  0  0  0  0
    1.3451   -1.5992   17.3473 O   0  0  0  0  0  0  0  0  0  0  0  0
    2.9589   -3.0762   16.8316 O   0  0  0  0  0  0  0  0  0  0  0  0
 12  5  1  0  0  0
  6  5  2  0  0  0
 35 29  1  0  0  0
  1  2  1  0  0  0
 13 12  1  0  0  0
 13 15  1  0  0  0
  2  6  1  0  0  0
  2  4  1  0  0  0
 29 30  2  0  0  0
 30 24  1  0  0  0
 41 36  1  0  0  0
 16 13  1  0  0  0
 17 16  2  0  0  0
 23  1  1  0  0  0
  7  5  1  0  0  0
 24 28  1  0  0  0
 24 27  2  0  0  0
 14 12  2  0  0  0
 36 40  1  0  0  0
 37 35  1  0  0  0
 38 35  1  0  0  0
  3  1  2  0  0  0
 42 41  2  0  0  0
  8  6  1  0  0  0
 25 23  2  0  0  0
 26 23  1  0  0  0
 27 25  1  0  0  0
 28 26  2  0  0  0
 39 37  1  0  0  0
 39 36  1  0  0  0
 40 38  1  0  0  0
  9  7  2  0  0  0
 18 17  1  0  0  0
 18 19  2  0  0  0
 43 41  1  0  0  0
 19 22  1  0  0  0
 20 16  1  0  0  0
 10  9  1  0  0  0
 10  8  2  0  0  0
 11  9  1  0  0  0
 21 19  1  0  0  0
 22 20  2  0  0  0
 31 29  1  0  0  0
 31 34  2  0  0  0
 32 30  1  0  0  0
 33 32  2  0  0  0
 34 33  1  0  0  0
M  CHG 1  43  -1
M  END
> <minimizedAffinity>
-11.03466

$$$$
