ZINC31490747
 OpenBabel07192215303D

 41 46  0  0  0  0  0  0  0  0999 V2000
    5.4179    0.6929   16.0217 C   0  0  0  0  0  0  0  0  0  0  0  0
    5.8613    1.8405   15.3770 C   0  0  0  0  0  0  0  0  0  0  0  0
    5.8119    1.9209   13.9995 C   0  0  0  0  0  0  0  0  0  0  0  0
    5.3088    0.8604   13.2600 C   0  0  0  0  0  0  0  0  0  0  0  0
    4.8609   -0.2842   13.9032 C   0  0  0  0  0  0  0  0  0  0  0  0
    4.9149   -0.3687   15.2804 C   0  0  0  0  0  0  0  0  0  0  0  0
    5.2553    0.9428   11.9038 O   0  0  0  0  0  0  0  0  0  0  0  0
    6.1855    1.1316   11.6227 H   0  0  0  0  0  0  0  0  0  0  0  0
    5.4726    0.6084   17.4171 N   0  0  0  0  0  0  0  0  0  0  0  0
    4.6679    0.2380   17.9426 H   0  0  0  0  0  0  0  0  0  0  0  0
    9.1773   -1.2931   16.8160 C   0  0  0  0  0  0  0  0  0  0  0  0
   10.3041   -0.8462   17.5147 C   0  0  0  0  0  0  0  0  0  0  0  0
   10.2224    0.1928   18.3861 C   0  0  0  0  0  0  0  0  0  0  0  0
    8.9866    0.8383   18.5972 C   0  0  0  0  0  0  0  0  0  0  0  0
    7.8432    0.3799   17.8913 C   0  0  0  0  0  0  0  0  0  0  0  0
    7.9637   -0.6945   16.9936 C   0  0  0  0  0  0  0  0  0  0  0  0
    6.6043    1.0212   18.0892 C   0  0  0  0  0  0  0  0  0  0  0  0
    6.5589    2.0943   19.0008 C   0  0  0  0  0  0  0  0  0  0  0  0
    5.3567    2.7775   19.2525 C   0  0  0  0  0  0  0  0  0  0  0  0
    5.3412    3.8102   20.1382 C   0  0  0  0  0  0  0  0  0  0  0  0
    6.5047    4.2017   20.8009 C   0  0  0  0  0  0  0  0  0  0  0  0
    7.6855    3.5652   20.5829 C   0  0  0  0  0  0  0  0  0  0  0  0
    7.7454    2.4895   19.6731 C   0  0  0  0  0  0  0  0  0  0  0  0
    8.8965    1.8579   19.4503 N   0  3  0  0  0  0  0  0  0  0  0  0
    9.7414    2.1665   19.9519 H   0  0  0  0  0  0  0  0  0  0  0  0
   10.3911   -3.2270   16.1518 C   0  0  0  0  0  0  0  0  0  0  0  0
    9.2923   -2.3356   15.9509 O   0  0  0  0  0  0  0  0  0  0  0  0
    4.3147   -1.4354   13.0988 C   0  0  0  0  0  0  0  0  0  0  0  0
    5.3740   -1.9766   12.2368 N   0  3  0  0  0  0  0  0  0  0  0  0
    6.5582   -2.3795   13.0379 C   0  0  0  0  0  0  0  0  0  0  0  0
    7.3003   -3.3664   12.1020 C   0  0  0  0  0  0  0  0  0  0  0  0
    6.1433   -4.1281   11.4155 C   0  0  0  0  0  0  0  0  0  0  0  0
    4.9197   -3.2021   11.5445 C   0  0  0  0  0  0  0  0  0  0  0  0
    5.6095   -1.2312   11.5662 H   0  0  0  0  0  0  0  0  0  0  0  0
    6.2991    3.1633   13.2995 C   0  0  0  0  0  0  0  0  0  0  0  0
    5.2910    3.6043   12.3262 N   0  3  0  0  0  0  0  0  0  0  0  0
    4.4125    4.6516   12.9074 C   0  0  0  0  0  0  0  0  0  0  0  0
    3.8113    5.3433   11.6581 C   0  0  0  0  0  0  0  0  0  0  0  0
    4.9940    5.3476   10.6625 C   0  0  0  0  0  0  0  0  0  0  0  0
    5.9298    4.2239   11.1450 C   0  0  0  0  0  0  0  0  0  0  0  0
    4.7541    2.7647   12.0662 H   0  0  0  0  0  0  0  0  0  0  0  0
  1  6  2  0  0  0  0
  1  2  1  0  0  0  0
  2  3  2  0  0  0  0
  3  4  1  0  0  0  0
  3 35  1  0  0  0  0
  4  5  2  0  0  0  0
  4  7  1  0  0  0  0
  5  6  1  0  0  0  0
  5 28  1  0  0  0  0
  7  8  1  0  0  0  0
  9  1  1  0  0  0  0
  9 10  1  0  0  0  0
 11 16  1  0  0  0  0
 11 12  2  0  0  0  0
 12 13  1  0  0  0  0
 13 14  2  0  0  0  0
 14 24  1  0  0  0  0
 14 15  1  0  0  0  0
 15 16  2  0  0  0  0
 15 17  1  0  0  0  0
 17 18  2  0  0  0  0
 17  9  1  0  0  0  0
 18 23  1  0  0  0  0
 18 19  1  0  0  0  0
 19 20  2  0  0  0  0
 20 21  1  0  0  0  0
 21 22  2  0  0  0  0
 22 23  1  0  0  0  0
 23 24  2  0  0  0  0
 24 25  1  0  0  0  0
 26 27  1  0  0  0  0
 27 11  1  0  0  0  0
 28 29  1  0  0  0  0
 29 33  1  0  0  0  0
 29 30  1  0  0  0  0
 29 34  1  0  0  0  0
 30 31  1  0  0  0  0
 31 32  1  0  0  0  0
 32 33  1  0  0  0  0
 35 36  1  0  0  0  0
 36 40  1  0  0  0  0
 36 37  1  0  0  0  0
 36 41  1  0  0  0  0
 37 38  1  0  0  0  0
 38 39  1  0  0  0  0
 39 40  1  0  0  0  0
M  CHG  3  24   1  29   1  36   1
M  END
>  <minimizedAffinity>
-9.98636

$$$$
