ZINC17038470


 40 45  0  0  0  0  0  0  0  0999 V2000
    5.8930    0.4353   17.4873 C   0  0  0  0  0  0  0  0  0  0  0  0
    5.6054    1.2663   18.5295 C   0  0  0  0  0  0  0  0  0  0  0  0
    6.7322    1.5205   19.2375 N   0  0  0  0  0  0  0  0  0  0  0  0
    7.8108    0.8684   18.6764 C   0  0  0  0  0  0  0  0  0  0  0  0
    7.3398    0.1607   17.5586 C   0  0  0  0  0  0  0  0  0  0  0  0
    8.2197   -0.5974   16.7906 C   0  0  0  0  0  0  0  0  0  0  0  0
    9.5535   -0.6492   17.1330 C   0  0  0  0  0  0  0  0  0  0  0  0
   10.0203    0.0493   18.2368 C   0  0  0  0  0  0  0  0  0  0  0  0
    9.1605    0.8034   19.0057 C   0  0  0  0  0  0  0  0  0  0  0  0
    4.8487    0.5193   15.2833 N   0  0  0  0  0  0  0  0  0  0  0  0
    5.7858    1.5835   14.9148 C   0  0  0  0  0  0  0  0  0  0  0  0
    4.9486   -0.0795   16.4866 C   0  0  0  0  0  0  0  0  0  0  0  0
    4.2565   -1.0464   16.7442 O   0  0  0  0  0  0  0  0  0  0  0  0
    1.0881    0.4784   11.0620 C   0  0  0  0  0  0  0  0  0  0  0  0
    1.5447    0.6563   13.4328 C   0  0  0  0  0  0  0  0  0  0  0  0
    2.6079    1.0561   14.4585 C   0  0  0  0  0  0  0  0  0  0  0  0
    3.8033    0.1061   14.3439 C   0  0  0  0  0  0  0  0  0  0  0  0
    4.3509    0.1553   12.9148 C   0  0  0  0  0  0  0  0  0  0  0  0
    3.2368   -0.2169   11.9338 C   0  0  0  0  0  0  0  0  0  0  0  0
    2.1271    0.7493   12.0770 N   0  0  0  0  0  0  0  0  0  0  0  0
    2.4939    1.7015   11.9360 H   0  0  0  0  0  0  0  0  0  0  0  0
    6.7972    2.3722   20.4278 C   0  0  0  0  0  0  0  0  0  0  0  0
    6.4458    3.8112   20.0450 C   0  0  0  0  0  0  0  0  0  0  0  0
    4.9817    4.0904   20.3956 C   0  0  0  0  0  0  0  0  0  0  0  0
    4.6552    5.5495   20.0652 C   0  0  0  0  0  0  0  0  0  0  0  0
    5.6053    6.4673   20.8377 C   0  0  0  0  0  0  0  0  0  0  0  0
    7.3446    4.7793   20.8175 C   0  0  0  0  0  0  0  0  0  0  0  0
    6.9960    6.1651   20.4371 N   0  0  0  0  0  0  0  0  0  0  0  0
    7.0764    6.2605   19.4147 H   0  0  0  0  0  0  0  0  0  0  0  0
    7.9251    7.1144   21.0839 C   0  0  0  0  0  0  0  0  0  0  0  0
    7.2479    7.6970   22.3261 C   0  0  0  0  0  0  0  0  0  0  0  0
    8.2836    7.9498   23.3911 C   0  0  0  0  0  0  0  0  0  0  0  0
    9.2787    8.8855   23.1773 C   0  0  0  0  0  0  0  0  0  0  0  0
   10.2276    9.1250   24.1535 C   0  0  0  0  0  0  0  0  0  0  0  0
   10.1907    8.4183   25.3447 C   0  0  0  0  0  0  0  0  0  0  0  0
    9.1914    7.4719   25.5579 C   0  0  0  0  0  0  0  0  0  0  0  0
    8.2401    7.2415   24.5774 C   0  0  0  0  0  0  0  0  0  0  0  0
    9.3705    6.9192   26.7930 O   0  0  0  0  0  0  0  0  0  0  0  0
   10.7232    7.2417   27.1661 C   0  0  0  0  0  0  0  0  0  0  0  0
   10.9956    8.4586   26.4463 O   0  0  0  0  0  0  0  0  0  0  0  0
 14 20  1  0  0  0
 15 16  1  0  0  0
 15 20  1  0  0  0
 16 17  1  0  0  0
 17 18  1  0  0  0
 17 10  1  0  0  0
 18 19  1  0  0  0
 19 20  1  0  0  0
 10 11  1  0  0  0
 10 12  1  0  0  0
 12 13  2  0  0  0
 12  1  1  0  0  0
  1  5  1  0  0  0
  1  2  2  0  0  0
  2  3  1  0  0  0
  3  4  1  0  0  0
  3 22  1  0  0  0
  4  9  2  0  0  0
  4  5  1  0  0  0
  5  6  2  0  0  0
  6  7  1  0  0  0
  7  8  2  0  0  0
  8  9  1  0  0  0
 22 23  1  0  0  0
 23 27  1  0  0  0
 23 24  1  0  0  0
 24 25  1  0  0  0
 25 26  1  0  0  0
 26 28  1  0  0  0
 27 28  1  0  0  0
 30 31  1  0  0  0
 30 28  1  0  0  0
 31 32  1  0  0  0
 32 37  2  0  0  0
 32 33  1  0  0  0
 33 34  2  0  0  0
 34 35  1  0  0  0
 35 40  1  0  0  0
 35 36  2  0  0  0
 36 37  1  0  0  0
 36 38  1  0  0  0
 38 39  1  0  0  0
 39 40  1  0  0  0
 20 21  1  0  0  0
 28 29  1  0  0  0
M  CHG 1  20   1
M  CHG 1  28   1
M  END
> <minimizedAffinity>
-10.78231

$$$$
ZINC17038470


 40 45  0  0  0  0  0  0  0  0999 V2000
    5.7679    0.2894   17.5729 C   0  0  0  0  0  0  0  0  0  0  0  0
    5.4127    0.7719   18.7979 C   0  0  0  0  0  0  0  0  0  0  0  0
    6.5142    0.9040   19.5756 N   0  0  0  0  0  0  0  0  0  0  0  0
    7.6426    0.5190   18.8814 C   0  0  0  0  0  0  0  0  0  0  0  0
    7.2320    0.1175   17.5999 C   0  0  0  0  0  0  0  0  0  0  0  0
    8.1712   -0.3263   16.6728 C   0  0  0  0  0  0  0  0  0  0  0  0
    9.5043   -0.3692   17.0194 C   0  0  0  0  0  0  0  0  0  0  0  0
    9.9115    0.0271   18.2847 C   0  0  0  0  0  0  0  0  0  0  0  0
    8.9927    0.4684   19.2120 C   0  0  0  0  0  0  0  0  0  0  0  0
    4.7082    0.9135   15.4652 N   0  0  0  0  0  0  0  0  0  0  0  0
    5.5409    2.1187   15.4399 C   0  0  0  0  0  0  0  0  0  0  0  0
    4.8696    0.0035   16.4462 C   0  0  0  0  0  0  0  0  0  0  0  0
    4.2712   -1.0548   16.3986 O   0  0  0  0  0  0  0  0  0  0  0  0
    1.6654    1.3440   10.7198 C   0  0  0  0  0  0  0  0  0  0  0  0
    1.8790    1.7682   13.0936 C   0  0  0  0  0  0  0  0  0  0  0  0
    2.8890    1.9806   14.2236 C   0  0  0  0  0  0  0  0  0  0  0  0
    3.7003    0.6976   14.4242 C   0  0  0  0  0  0  0  0  0  0  0  0
    4.3933    0.3288   13.1096 C   0  0  0  0  0  0  0  0  0  0  0  0
    3.3397    0.1658   12.0115 C   0  0  0  0  0  0  0  0  0  0  0  0
    2.6108    1.4418   11.8510 N   0  0  0  0  0  0  0  0  0  0  0  0
    3.2899    2.1916   11.6570 H   0  0  0  0  0  0  0  0  0  0  0  0
    6.5085    1.3919   20.9570 C   0  0  0  0  0  0  0  0  0  0  0  0
    5.3801    2.4100   21.1335 C   0  0  0  0  0  0  0  0  0  0  0  0
    4.5091    2.0059   22.3263 C   0  0  0  0  0  0  0  0  0  0  0  0
    3.4190    3.0613   22.5330 C   0  0  0  0  0  0  0  0  0  0  0  0
    4.0732    4.4278   22.7491 C   0  0  0  0  0  0  0  0  0  0  0  0
    5.9774    3.7955   21.3893 C   0  0  0  0  0  0  0  0  0  0  0  0
    4.8770    4.7691   21.5562 N   0  0  0  0  0  0  0  0  0  0  0  0
    4.2707    4.7329   20.7243 H   0  0  0  0  0  0  0  0  0  0  0  0
    5.4273    6.1335   21.6920 C   0  0  0  0  0  0  0  0  0  0  0  0
    6.7272    6.2221   20.8899 C   0  0  0  0  0  0  0  0  0  0  0  0
    7.6726    7.1790   21.5692 C   0  0  0  0  0  0  0  0  0  0  0  0
    8.3461    8.1289   20.8240 C   0  0  0  0  0  0  0  0  0  0  0  0
    9.2100    9.0126   21.4435 C   0  0  0  0  0  0  0  0  0  0  0  0
    9.4121    8.9402   22.8123 C   0  0  0  0  0  0  0  0  0  0  0  0
    8.7376    7.9799   23.5622 C   0  0  0  0  0  0  0  0  0  0  0  0
    7.8687    7.1015   22.9354 C   0  0  0  0  0  0  0  0  0  0  0  0
    9.1026    8.1127   24.8707 O   0  0  0  0  0  0  0  0  0  0  0  0
   10.3124    8.8933   24.8551 C   0  0  0  0  0  0  0  0  0  0  0  0
   10.1995    9.6748   23.6510 O   0  0  0  0  0  0  0  0  0  0  0  0
 14 20  1  0  0  0
 15 16  1  0  0  0
 15 20  1  0  0  0
 16 17  1  0  0  0
 17 18  1  0  0  0
 17 10  1  0  0  0
 18 19  1  0  0  0
 19 20  1  0  0  0
 10 11  1  0  0  0
 10 12  1  0  0  0
 12 13  2  0  0  0
 12  1  1  0  0  0
  1  5  1  0  0  0
  1  2  2  0  0  0
  2  3  1  0  0  0
  3  4  1  0  0  0
  3 22  1  0  0  0
  4  9  2  0  0  0
  4  5  1  0  0  0
  5  6  2  0  0  0
  6  7  1  0  0  0
  7  8  2  0  0  0
  8  9  1  0  0  0
 22 23  1  0  0  0
 23 27  1  0  0  0
 23 24  1  0  0  0
 24 25  1  0  0  0
 25 26  1  0  0  0
 26 28  1  0  0  0
 27 28  1  0  0  0
 30 31  1  0  0  0
 30 28  1  0  0  0
 31 32  1  0  0  0
 32 37  2  0  0  0
 32 33  1  0  0  0
 33 34  2  0  0  0
 34 35  1  0  0  0
 35 40  1  0  0  0
 35 36  2  0  0  0
 36 37  1  0  0  0
 36 38  1  0  0  0
 38 39  1  0  0  0
 39 40  1  0  0  0
 20 21  1  0  0  0
 28 29  1  0  0  0
M  CHG 1  20   1
M  CHG 1  28   1
M  END
> <minimizedAffinity>
-10.28335

$$$$
ZINC17038470


 40 45  0  0  0  0  0  0  0  0999 V2000
    6.5090    1.6132   19.5022 C   0  0  0  0  0  0  0  0  0  0  0  0
    5.4017    1.1923   18.8268 C   0  0  0  0  0  0  0  0  0  0  0  0
    5.7674    0.3697   17.8143 N   0  0  0  0  0  0  0  0  0  0  0  0
    7.1378    0.2118   17.7934 C   0  0  0  0  0  0  0  0  0  0  0  0
    7.6660    0.9791   18.8442 C   0  0  0  0  0  0  0  0  0  0  0  0
    9.0405    1.0093   19.0644 C   0  0  0  0  0  0  0  0  0  0  0  0
    9.8786    0.2831   18.2463 C   0  0  0  0  0  0  0  0  0  0  0  0
    9.3584   -0.4753   17.2079 C   0  0  0  0  0  0  0  0  0  0  0  0
    8.0001   -0.5143   16.9787 C   0  0  0  0  0  0  0  0  0  0  0  0
    6.1992    3.8109   20.5166 N   0  0  0  0  0  0  0  0  0  0  0  0
    5.6477    4.2852   19.2449 C   0  0  0  0  0  0  0  0  0  0  0  0
    6.5419    2.5155   20.6611 C   0  0  0  0  0  0  0  0  0  0  0  0
    6.8786    2.0933   21.7514 O   0  0  0  0  0  0  0  0  0  0  0  0
    6.0887    8.4466   23.7510 C   0  0  0  0  0  0  0  0  0  0  0  0
    7.3338    6.9479   22.3143 C   0  0  0  0  0  0  0  0  0  0  0  0
    7.2020    5.9477   21.1635 C   0  0  0  0  0  0  0  0  0  0  0  0
    6.3782    4.7448   21.6311 C   0  0  0  0  0  0  0  0  0  0  0  0
    5.0095    5.2296   22.1173 C   0  0  0  0  0  0  0  0  0  0  0  0
    5.2050    6.2517   23.2395 C   0  0  0  0  0  0  0  0  0  0  0  0
    5.9837    7.3951   22.7184 N   0  0  0  0  0  0  0  0  0  0  0  0
    5.4996    7.7806   21.8949 H   0  0  0  0  0  0  0  0  0  0  0  0
    4.8383   -0.2666   16.8772 C   0  0  0  0  0  0  0  0  0  0  0  0
    5.3748   -0.1243   15.4514 C   0  0  0  0  0  0  0  0  0  0  0  0
    4.5948   -1.0530   14.5167 C   0  0  0  0  0  0  0  0  0  0  0  0
    5.0970   -0.8604   13.0830 C   0  0  0  0  0  0  0  0  0  0  0  0
    4.9349    0.6080   12.6838 C   0  0  0  0  0  0  0  0  0  0  0  0
    5.2054    1.3230   14.9839 C   0  0  0  0  0  0  0  0  0  0  0  0
    5.7290    1.4468   13.6066 N   0  0  0  0  0  0  0  0  0  0  0  0
    6.7072    1.1245   13.5915 H   0  0  0  0  0  0  0  0  0  0  0  0
    5.6804    2.8585   13.1737 C   0  0  0  0  0  0  0  0  0  0  0  0
    6.5972    3.6830   14.0796 C   0  0  0  0  0  0  0  0  0  0  0  0
    6.8764    5.0153   13.4330 C   0  0  0  0  0  0  0  0  0  0  0  0
    6.1995    5.3797   12.2840 C   0  0  0  0  0  0  0  0  0  0  0  0
    6.4480    6.6032   11.6904 C   0  0  0  0  0  0  0  0  0  0  0  0
    7.3859    7.4625   12.2396 C   0  0  0  0  0  0  0  0  0  0  0  0
    8.0716    7.0931   13.3941 C   0  0  0  0  0  0  0  0  0  0  0  0
    7.8129    5.8680   13.9870 C   0  0  0  0  0  0  0  0  0  0  0  0
    8.9302    8.0989   13.7321 O   0  0  0  0  0  0  0  0  0  0  0  0
    9.0589    8.9087   12.5485 C   0  0  0  0  0  0  0  0  0  0  0  0
    7.8148    8.6998   11.8544 O   0  0  0  0  0  0  0  0  0  0  0  0
 14 20  1  0  0  0
 15 16  1  0  0  0
 15 20  1  0  0  0
 16 17  1  0  0  0
 17 18  1  0  0  0
 17 10  1  0  0  0
 18 19  1  0  0  0
 19 20  1  0  0  0
 10 11  1  0  0  0
 10 12  1  0  0  0
 12 13  2  0  0  0
 12  1  1  0  0  0
  1  5  1  0  0  0
  1  2  2  0  0  0
  2  3  1  0  0  0
  3  4  1  0  0  0
  3 22  1  0  0  0
  4  9  2  0  0  0
  4  5  1  0  0  0
  5  6  2  0  0  0
  6  7  1  0  0  0
  7  8  2  0  0  0
  8  9  1  0  0  0
 22 23  1  0  0  0
 23 27  1  0  0  0
 23 24  1  0  0  0
 24 25  1  0  0  0
 25 26  1  0  0  0
 26 28  1  0  0  0
 27 28  1  0  0  0
 30 31  1  0  0  0
 30 28  1  0  0  0
 31 32  1  0  0  0
 32 37  2  0  0  0
 32 33  1  0  0  0
 33 34  2  0  0  0
 34 35  1  0  0  0
 35 40  1  0  0  0
 35 36  2  0  0  0
 36 37  1  0  0  0
 36 38  1  0  0  0
 38 39  1  0  0  0
 39 40  1  0  0  0
 20 21  1  0  0  0
 28 29  1  0  0  0
M  CHG 1  20   1
M  CHG 1  28   1
M  END
> <minimizedAffinity>
-10.01837

$$$$
