ZINC00587692


 33 35  0  0  0  0  0  0  0  0999 V2000
    4.2309    2.4381   22.6561 C   0  0  0  0  0  0  0  0  0  0  0  0
    3.1020    2.5400   23.4871 C   0  0  0  0  0  0  0  0  0  0  0  0
    2.2925    1.4387   23.7341 C   0  0  0  0  0  0  0  0  0  0  0  0
    2.5689    0.2192   23.1472 C   0  0  0  0  0  0  0  0  0  0  0  0
    3.6541    0.1096   22.2753 C   0  0  0  0  0  0  0  0  0  0  0  0
    4.4799    1.2161   21.9815 C   0  0  0  0  0  0  0  0  0  0  0  0
    1.2240    1.5252   24.5762 O   0  0  0  0  0  0  0  0  0  0  0  0
    1.2626    2.3902   25.0218 H   0  0  0  0  0  0  0  0  0  0  0  0
    5.0838    4.5369   21.6016 C   0  0  0  0  0  0  0  0  0  0  0  0
    4.2870    4.6146   20.6708 O   0  0  0  0  0  0  0  0  0  0  0  0
    5.1210    3.5364   22.5508 N   0  0  0  0  0  0  0  0  0  0  0  0
    5.7283    3.6733   23.3511 H   0  0  0  0  0  0  0  0  0  0  0  0
    7.7510    7.9215   22.1924 C   0  0  0  0  0  0  0  0  0  0  0  0
    6.5944    7.7118   22.9604 C   0  0  0  0  0  0  0  0  0  0  0  0
    5.7560    6.6093   22.7604 C   0  0  0  0  0  0  0  0  0  0  0  0
    6.0491    5.6597   21.7810 C   0  0  0  0  0  0  0  0  0  0  0  0
    7.1987    5.8292   21.0117 C   0  0  0  0  0  0  0  0  0  0  0  0
    8.0342    6.9393   21.2258 C   0  0  0  0  0  0  0  0  0  0  0  0
    9.3607    9.1230   23.6289 C   0  0  0  0  0  0  0  0  0  0  0  0
    8.5855    9.0225   22.3959 N   0  0  0  0  0  0  0  0  0  0  0  0
    8.2884   10.2759   21.7079 C   0  0  0  0  0  0  0  0  0  0  0  0
    5.5174    0.9412   21.0425 N   0  0  0  0  0  0  0  0  0  0  0  0
    5.5720    1.2641   19.7023 C   0  0  0  0  0  0  0  0  0  0  0  0
    4.7119    1.8695   19.0719 O   0  0  0  0  0  0  0  0  0  0  0  0
    6.2050    0.2702   21.3607 H   0  0  0  0  0  0  0  0  0  0  0  0
    6.7495    0.7707   18.9416 C   0  0  0  0  0  0  0  0  0  0  0  0
    6.5203    0.2336   17.6667 C   0  0  0  0  0  0  0  0  0  0  0  0
    7.5733   -0.2929   16.9165 C   0  0  0  0  0  0  0  0  0  0  0  0
    8.8674   -0.2825   17.4334 C   0  0  0  0  0  0  0  0  0  0  0  0
    9.1045    0.3085   18.6792 C   0  0  0  0  0  0  0  0  0  0  0  0
    8.0542    0.8397   19.4348 C   0  0  0  0  0  0  0  0  0  0  0  0
    9.9732   -0.8062   16.8233 O   0  0  0  0  0  0  0  0  0  0  0  0
    9.8871   -2.1651   16.4085 C   0  0  0  0  0  0  0  0  0  0  0  0
 19 20  1  0  0  0
 20 21  1  0  0  0
 20 13  1  0  0  0
 13 14  2  0  0  0
 13 18  1  0  0  0
 14 15  1  0  0  0
 15 16  2  0  0  0
 16 17  1  0  0  0
 16  9  1  0  0  0
 17 18  2  0  0  0
  9 10  2  0  0  0
  9 11  1  0  0  0
 11  1  1  0  0  0
 11 12  1  0  0  0
  1  2  2  0  0  0
  1  6  1  0  0  0
  2  3  1  0  0  0
  3  4  2  0  0  0
  3  7  1  0  0  0
  4  5  1  0  0  0
  5  6  2  0  0  0
  6 22  1  0  0  0
 22 23  1  0  0  0
 22 25  1  0  0  0
 23 24  2  0  0  0
 23 26  1  0  0  0
 26 27  2  0  0  0
 26 31  1  0  0  0
 27 28  1  0  0  0
 28 29  2  0  0  0
 29 30  1  0  0  0
 29 32  1  0  0  0
 30 31  2  0  0  0
 32 33  1  0  0  0
  7  8  1  0  0  0
M  END
> <minimizedAffinity>
-9.28301

$$$$
ZINC00587692


 33 35  0  0  0  0  0  0  0  0999 V2000
    6.7943    3.4598   20.8082 C   0  0  0  0  0  0  0  0  0  0  0  0
    7.3440    4.7526   20.7666 C   0  0  0  0  0  0  0  0  0  0  0  0
    6.8469    5.7687   21.5727 C   0  0  0  0  0  0  0  0  0  0  0  0
    5.7819    5.5341   22.4204 C   0  0  0  0  0  0  0  0  0  0  0  0
    5.1861    4.2714   22.4375 C   0  0  0  0  0  0  0  0  0  0  0  0
    5.6492    3.2252   21.6108 C   0  0  0  0  0  0  0  0  0  0  0  0
    7.4090    7.0106   21.5666 O   0  0  0  0  0  0  0  0  0  0  0  0
    8.2311    6.9652   21.0467 H   0  0  0  0  0  0  0  0  0  0  0  0
    6.9774    1.8309   18.9221 C   0  0  0  0  0  0  0  0  0  0  0  0
    5.9384    2.1123   18.3316 O   0  0  0  0  0  0  0  0  0  0  0  0
    7.4235    2.4108   20.0917 N   0  0  0  0  0  0  0  0  0  0  0  0
    8.3686    2.1961   20.3894 H   0  0  0  0  0  0  0  0  0  0  0  0
    9.4698   -1.1824   17.0179 C   0  0  0  0  0  0  0  0  0  0  0  0
    8.1460   -0.9225   16.6285 C   0  0  0  0  0  0  0  0  0  0  0  0
    7.3655    0.0599   17.2481 C   0  0  0  0  0  0  0  0  0  0  0  0
    7.8862    0.8342   18.2854 C   0  0  0  0  0  0  0  0  0  0  0  0
    9.2025    0.6131   18.6857 C   0  0  0  0  0  0  0  0  0  0  0  0
    9.9769   -0.3744   18.0520 C   0  0  0  0  0  0  0  0  0  0  0  0
    9.6092   -3.1339   15.5112 C   0  0  0  0  0  0  0  0  0  0  0  0
   10.2457   -2.1630   16.3962 N   0  0  0  0  0  0  0  0  0  0  0  0
   11.5044   -2.5706   17.0144 C   0  0  0  0  0  0  0  0  0  0  0  0
    4.9042    2.0143   21.7237 N   0  0  0  0  0  0  0  0  0  0  0  0
    3.7637    1.6399   21.0436 C   0  0  0  0  0  0  0  0  0  0  0  0
    3.1821    2.3040   20.1925 O   0  0  0  0  0  0  0  0  0  0  0  0
    5.1399    1.4496   22.5298 H   0  0  0  0  0  0  0  0  0  0  0  0
    3.1478    0.3439   21.4307 C   0  0  0  0  0  0  0  0  0  0  0  0
    3.4489   -0.1639   22.7027 C   0  0  0  0  0  0  0  0  0  0  0  0
    2.9446   -1.3991   23.1134 C   0  0  0  0  0  0  0  0  0  0  0  0
    2.1296   -2.1361   22.2564 C   0  0  0  0  0  0  0  0  0  0  0  0
    1.7803   -1.6011   21.0117 C   0  0  0  0  0  0  0  0  0  0  0  0
    2.2805   -0.3631   20.5951 C   0  0  0  0  0  0  0  0  0  0  0  0
    1.6119   -3.3743   22.5181 O   0  0  0  0  0  0  0  0  0  0  0  0
    2.5216   -4.4678   22.4661 C   0  0  0  0  0  0  0  0  0  0  0  0
 19 20  1  0  0  0
 20 21  1  0  0  0
 20 13  1  0  0  0
 13 14  2  0  0  0
 13 18  1  0  0  0
 14 15  1  0  0  0
 15 16  2  0  0  0
 16 17  1  0  0  0
 16  9  1  0  0  0
 17 18  2  0  0  0
  9 10  2  0  0  0
  9 11  1  0  0  0
 11  1  1  0  0  0
 11 12  1  0  0  0
  1  2  2  0  0  0
  1  6  1  0  0  0
  2  3  1  0  0  0
  3  4  2  0  0  0
  3  7  1  0  0  0
  4  5  1  0  0  0
  5  6  2  0  0  0
  6 22  1  0  0  0
 22 23  1  0  0  0
 22 25  1  0  0  0
 23 24  2  0  0  0
 23 26  1  0  0  0
 26 27  2  0  0  0
 26 31  1  0  0  0
 27 28  1  0  0  0
 28 29  2  0  0  0
 29 30  1  0  0  0
 29 32  1  0  0  0
 30 31  2  0  0  0
 32 33  1  0  0  0
  7  8  1  0  0  0
M  END
> <minimizedAffinity>
-8.77403

$$$$
ZINC00587692


 33 35  0  0  0  0  0  0  0  0999 V2000
    5.0329    3.0384   22.0709 C   0  0  0  0  0  0  0  0  0  0  0  0
    4.4556    3.9866   22.9329 C   0  0  0  0  0  0  0  0  0  0  0  0
    4.8232    5.3248   22.8749 C   0  0  0  0  0  0  0  0  0  0  0  0
    5.7850    5.7501   21.9794 C   0  0  0  0  0  0  0  0  0  0  0  0
    6.4101    4.8154   21.1515 C   0  0  0  0  0  0  0  0  0  0  0  0
    6.0796    3.4441   21.2047 C   0  0  0  0  0  0  0  0  0  0  0  0
    4.2308    6.2528   23.6788 O   0  0  0  0  0  0  0  0  0  0  0  0
    3.4786    5.8258   24.1262 H   0  0  0  0  0  0  0  0  0  0  0  0
    3.6140    1.1692   22.9295 C   0  0  0  0  0  0  0  0  0  0  0  0
    3.1231    1.7388   23.9000 O   0  0  0  0  0  0  0  0  0  0  0  0
    4.5244    1.7154   22.0484 N   0  0  0  0  0  0  0  0  0  0  0  0
    4.7313    1.1917   21.2052 H   0  0  0  0  0  0  0  0  0  0  0  0
    2.0612   -2.7628   21.9066 C   0  0  0  0  0  0  0  0  0  0  0  0
    1.9467   -1.6479   21.0608 C   0  0  0  0  0  0  0  0  0  0  0  0
    2.4638   -0.3940   21.4054 C   0  0  0  0  0  0  0  0  0  0  0  0
    3.1296   -0.2065   22.6172 C   0  0  0  0  0  0  0  0  0  0  0  0
    3.2750   -1.2966   23.4730 C   0  0  0  0  0  0  0  0  0  0  0  0
    2.7542   -2.5516   23.1127 C   0  0  0  0  0  0  0  0  0  0  0  0
    0.1013   -4.2300   21.5835 C   0  0  0  0  0  0  0  0  0  0  0  0
    1.5447   -4.0127   21.5585 N   0  0  0  0  0  0  0  0  0  0  0  0
    2.3856   -5.1967   21.7120 C   0  0  0  0  0  0  0  0  0  0  0  0
    6.8399    2.6224   20.3212 N   0  0  0  0  0  0  0  0  0  0  0  0
    6.3931    1.6363   19.4659 C   0  0  0  0  0  0  0  0  0  0  0  0
    5.2264    1.2931   19.3096 O   0  0  0  0  0  0  0  0  0  0  0  0
    7.8388    2.6442   20.4823 H   0  0  0  0  0  0  0  0  0  0  0  0
    7.4298    0.8760   18.7202 C   0  0  0  0  0  0  0  0  0  0  0  0
    7.0156    0.1399   17.6009 C   0  0  0  0  0  0  0  0  0  0  0  0
    7.9270   -0.6363   16.8827 C   0  0  0  0  0  0  0  0  0  0  0  0
    9.2634   -0.6792   17.2752 C   0  0  0  0  0  0  0  0  0  0  0  0
    9.6876    0.1032   18.3548 C   0  0  0  0  0  0  0  0  0  0  0  0
    8.7799    0.8845   19.0771 C   0  0  0  0  0  0  0  0  0  0  0  0
   10.2422   -1.4324   16.6887 O   0  0  0  0  0  0  0  0  0  0  0  0
    9.8367   -2.6752   16.1256 C   0  0  0  0  0  0  0  0  0  0  0  0
 19 20  1  0  0  0
 20 21  1  0  0  0
 20 13  1  0  0  0
 13 14  2  0  0  0
 13 18  1  0  0  0
 14 15  1  0  0  0
 15 16  2  0  0  0
 16 17  1  0  0  0
 16  9  1  0  0  0
 17 18  2  0  0  0
  9 10  2  0  0  0
  9 11  1  0  0  0
 11  1  1  0  0  0
 11 12  1  0  0  0
  1  2  2  0  0  0
  1  6  1  0  0  0
  2  3  1  0  0  0
  3  4  2  0  0  0
  3  7  1  0  0  0
  4  5  1  0  0  0
  5  6  2  0  0  0
  6 22  1  0  0  0
 22 23  1  0  0  0
 22 25  1  0  0  0
 23 24  2  0  0  0
 23 26  1  0  0  0
 26 27  2  0  0  0
 26 31  1  0  0  0
 27 28  1  0  0  0
 28 29  2  0  0  0
 29 30  1  0  0  0
 29 32  1  0  0  0
 30 31  2  0  0  0
 32 33  1  0  0  0
  7  8  1  0  0  0
M  END
> <minimizedAffinity>
-8.53589

$$$$
