ZINC00538490
 OpenBabel07192215303D

 34 36  0  0  0  0  0  0  0  0999 V2000
    7.3518    6.5335   21.3454 C   0  0  0  0  0  0  0  0  0  0  0  0
    8.0129    5.3012   21.2900 C   0  0  0  0  0  0  0  0  0  0  0  0
    7.5021    4.1806   20.6475 C   0  0  0  0  0  0  0  0  0  0  0  0
    6.2192    4.1891   20.1222 C   0  0  0  0  0  0  0  0  0  0  0  0
    5.5395    5.4073   20.0966 C   0  0  0  0  0  0  0  0  0  0  0  0
    6.1101    6.5630   20.6765 C   0  0  0  0  0  0  0  0  0  0  0  0
    3.9778    5.5426   19.3702 Cl  0  0  0  0  0  0  0  0  0  0  0  0
    7.2628    6.7831   24.2392 C   0  0  0  0  0  0  0  0  0  0  0  0
    7.4411    8.0373   23.3520 C   0  0  0  0  0  0  0  0  0  0  0  0
    8.3278    8.8704   24.1541 N   0  0  0  0  0  0  0  0  0  0  0  0
    9.3645    9.3760   23.6042 C   0  0  0  0  0  0  0  0  0  0  0  0
    9.7343    9.1778   22.3217 N   0  0  0  0  0  0  0  0  0  0  0  0
    9.0506    8.3612   21.5854 C   0  0  0  0  0  0  0  0  0  0  0  0
    7.9283    7.6641   21.9907 N   0  0  0  0  0  0  0  0  0  0  0  0
    9.4726    8.2994   20.2990 N   0  0  0  0  0  0  0  0  0  0  0  0
   10.1171   10.2305   24.3339 N   0  0  0  0  0  0  0  0  0  0  0  0
    6.1602    8.9118   23.2809 C   0  0  0  0  0  0  0  0  0  0  0  0
   10.4297    8.6035   20.1713 H   0  0  0  0  0  0  0  0  0  0  0  0
    9.1405    7.6082   19.6508 H   0  0  0  0  0  0  0  0  0  0  0  0
    9.5677   10.6686   25.0613 H   0  0  0  0  0  0  0  0  0  0  0  0
   10.6111   10.8853   23.7429 H   0  0  0  0  0  0  0  0  0  0  0  0
    5.6128    3.0437   19.6610 O   0  0  0  0  0  0  0  0  0  0  0  0
    6.2318    1.8523   20.1649 C   0  0  0  0  0  0  0  0  0  0  0  0
    6.9528    1.0132   19.1483 C   0  0  0  0  0  0  0  0  0  0  0  0
    8.3262    0.8023   19.3364 C   0  0  0  0  0  0  0  0  0  0  0  0
    9.0855    0.1977   18.3426 C   0  0  0  0  0  0  0  0  0  0  0  0
    8.4759   -0.2068   17.1536 C   0  0  0  0  0  0  0  0  0  0  0  0
    7.0896   -0.1062   16.9891 C   0  0  0  0  0  0  0  0  0  0  0  0
    6.3368    0.5201   17.9978 C   0  0  0  0  0  0  0  0  0  0  0  0
    6.3433   -0.5140   15.7624 C   0  0  0  0  0  0  0  0  0  0  0  0
    6.0945   -1.7179   15.6447 O   0  0  0  0  0  0  0  0  0  0  0  0
    5.9465    0.3871   14.7695 N   0  0  0  0  0  0  0  0  0  0  0  0
    6.2256    1.8099   14.6849 C   0  0  0  0  0  0  0  0  0  0  0  0
    5.2301   -0.1943   13.6463 C   0  0  0  0  0  0  0  0  0  0  0  0
  1  2  2  0  0  0  0
  1  6  1  0  0  0  0
  2  3  1  0  0  0  0
  3  4  2  0  0  0  0
  4  5  1  0  0  0  0
  4 22  1  0  0  0  0
  5  6  2  0  0  0  0
  5  7  1  0  0  0  0
  8  9  1  0  0  0  0
  9 10  1  0  0  0  0
  9 14  1  0  0  0  0
  9 17  1  0  0  0  0
 10 11  2  0  0  0  0
 11 12  1  0  0  0  0
 11 16  1  0  0  0  0
 12 13  2  0  0  0  0
 13 14  1  0  0  0  0
 13 15  1  0  0  0  0
 14  1  1  0  0  0  0
 15 18  1  0  0  0  0
 15 19  1  0  0  0  0
 16 20  1  0  0  0  0
 16 21  1  0  0  0  0
 22 23  1  0  0  0  0
 23 24  1  0  0  0  0
 24 25  2  0  0  0  0
 24 29  1  0  0  0  0
 25 26  1  0  0  0  0
 26 27  2  0  0  0  0
 27 28  1  0  0  0  0
 28 29  2  0  0  0  0
 28 30  1  0  0  0  0
 30 31  2  0  0  0  0
 30 32  1  0  0  0  0
 32 33  1  0  0  0  0
 32 34  1  0  0  0  0
M  END
>  <minimizedAffinity>
-9.33489

$$$$
