ZINC00587692
 OpenBabel07192215303D

 33 35  0  0  0  0  0  0  0  0999 V2000
    4.2309    2.4381   22.6561 C   0  0  0  0  0  0  0  0  0  0  0  0
    3.1020    2.5400   23.4871 C   0  0  0  0  0  0  0  0  0  0  0  0
    2.2925    1.4387   23.7341 C   0  0  0  0  0  0  0  0  0  0  0  0
    2.5689    0.2192   23.1472 C   0  0  0  0  0  0  0  0  0  0  0  0
    3.6541    0.1096   22.2753 C   0  0  0  0  0  0  0  0  0  0  0  0
    4.4799    1.2161   21.9815 C   0  0  0  0  0  0  0  0  0  0  0  0
    1.2240    1.5252   24.5762 O   0  0  0  0  0  0  0  0  0  0  0  0
    1.2626    2.3902   25.0218 H   0  0  0  0  0  0  0  0  0  0  0  0
    5.0838    4.5369   21.6016 C   0  0  0  0  0  0  0  0  0  0  0  0
    4.2870    4.6146   20.6708 O   0  0  0  0  0  0  0  0  0  0  0  0
    5.1210    3.5364   22.5508 N   0  0  0  0  0  0  0  0  0  0  0  0
    5.7283    3.6733   23.3511 H   0  0  0  0  0  0  0  0  0  0  0  0
    7.7510    7.9215   22.1924 C   0  0  0  0  0  0  0  0  0  0  0  0
    6.5944    7.7118   22.9604 C   0  0  0  0  0  0  0  0  0  0  0  0
    5.7560    6.6093   22.7604 C   0  0  0  0  0  0  0  0  0  0  0  0
    6.0491    5.6597   21.7810 C   0  0  0  0  0  0  0  0  0  0  0  0
    7.1987    5.8292   21.0117 C   0  0  0  0  0  0  0  0  0  0  0  0
    8.0342    6.9393   21.2258 C   0  0  0  0  0  0  0  0  0  0  0  0
    9.3607    9.1230   23.6289 C   0  0  0  0  0  0  0  0  0  0  0  0
    8.5855    9.0225   22.3959 N   0  0  0  0  0  0  0  0  0  0  0  0
    8.2884   10.2759   21.7079 C   0  0  0  0  0  0  0  0  0  0  0  0
    5.5174    0.9412   21.0425 N   0  0  0  0  0  0  0  0  0  0  0  0
    5.5720    1.2641   19.7023 C   0  0  0  0  0  0  0  0  0  0  0  0
    4.7119    1.8695   19.0719 O   0  0  0  0  0  0  0  0  0  0  0  0
    6.2050    0.2702   21.3607 H   0  0  0  0  0  0  0  0  0  0  0  0
    6.7495    0.7707   18.9416 C   0  0  0  0  0  0  0  0  0  0  0  0
    6.5203    0.2336   17.6667 C   0  0  0  0  0  0  0  0  0  0  0  0
    7.5733   -0.2929   16.9165 C   0  0  0  0  0  0  0  0  0  0  0  0
    8.8674   -0.2825   17.4334 C   0  0  0  0  0  0  0  0  0  0  0  0
    9.1045    0.3085   18.6792 C   0  0  0  0  0  0  0  0  0  0  0  0
    8.0542    0.8397   19.4348 C   0  0  0  0  0  0  0  0  0  0  0  0
    9.9732   -0.8062   16.8233 O   0  0  0  0  0  0  0  0  0  0  0  0
    9.8871   -2.1651   16.4085 C   0  0  0  0  0  0  0  0  0  0  0  0
  1  2  2  0  0  0  0
  1  6  1  0  0  0  0
  2  3  1  0  0  0  0
  3  4  2  0  0  0  0
  3  7  1  0  0  0  0
  4  5  1  0  0  0  0
  5  6  2  0  0  0  0
  6 22  1  0  0  0  0
  7  8  1  0  0  0  0
  9 10  2  0  0  0  0
  9 11  1  0  0  0  0
 11  1  1  0  0  0  0
 11 12  1  0  0  0  0
 13 14  2  0  0  0  0
 13 18  1  0  0  0  0
 14 15  1  0  0  0  0
 15 16  2  0  0  0  0
 16 17  1  0  0  0  0
 16  9  1  0  0  0  0
 17 18  2  0  0  0  0
 19 20  1  0  0  0  0
 20 21  1  0  0  0  0
 20 13  1  0  0  0  0
 22 23  1  0  0  0  0
 22 25  1  0  0  0  0
 23 24  2  0  0  0  0
 23 26  1  0  0  0  0
 26 27  2  0  0  0  0
 26 31  1  0  0  0  0
 27 28  1  0  0  0  0
 28 29  2  0  0  0  0
 29 30  1  0  0  0  0
 29 32  1  0  0  0  0
 30 31  2  0  0  0  0
 32 33  1  0  0  0  0
M  END
>  <minimizedAffinity>
-9.28301

$$$$
