ZINC01490749
 OpenBabel07192215303D

 29 32  0  0  0  0  0  0  0  0999 V2000
    5.6480    4.8823   21.1488 N   0  0  0  0  0  0  0  0  0  0  0  0
    6.9752    5.5177   21.0943 C   0  0  0  0  0  0  0  0  0  0  0  0
    6.8353    6.9593   21.5867 C   0  0  0  0  0  0  0  0  0  0  0  0
    6.0556    7.0120   22.8155 N   0  0  0  0  0  0  0  0  0  0  0  0
    5.1999    6.0689   23.2105 C   0  0  0  0  0  0  0  0  0  0  0  0
    4.5486    6.2615   24.2157 O   0  0  0  0  0  0  0  0  0  0  0  0
    5.0022    4.7804   22.4667 C   0  0  0  0  0  0  0  0  0  0  0  0
    4.9081    4.3118   19.7812 S   0  0  0  0  0  0  0  0  0  0  0  0
    4.7209    5.4301   18.9248 O   0  0  0  0  0  0  0  0  0  0  0  0
    3.8287    3.4945   20.2137 O   0  0  0  0  0  0  0  0  0  0  0  0
    6.4852    2.1462   19.5859 C   0  0  0  0  0  0  0  0  0  0  0  0
    6.0551    3.2462   18.9744 C   0  0  0  0  0  0  0  0  0  0  0  0
    8.7837    1.0821   19.1703 C   0  0  0  0  0  0  0  0  0  0  0  0
    9.4896    0.1822   18.4043 C   0  0  0  0  0  0  0  0  0  0  0  0
    8.8469   -0.4920   17.4141 C   0  0  0  0  0  0  0  0  0  0  0  0
    7.1818    0.1388   17.5504 S   0  0  0  0  0  0  0  0  0  0  0  0
    7.4478    1.2590   18.9147 C   0  0  0  0  0  0  0  0  0  0  0  0
    9.4808   -1.6658   16.3029 Cl  0  0  0  0  0  0  0  0  0  0  0  0
    6.2233    8.1844   23.6784 C   0  0  0  0  0  0  0  0  0  0  0  0
    7.5290    8.0771   24.4232 C   0  0  0  0  0  0  0  0  0  0  0  0
    8.6479    8.7550   24.1190 C   0  0  0  0  0  0  0  0  0  0  0  0
    9.6666    8.3543   25.0904 C   0  0  0  0  0  0  0  0  0  0  0  0
   11.0014    8.6868   25.3117 C   0  0  0  0  0  0  0  0  0  0  0  0
   11.6626    8.1295   26.3051 N   0  0  0  0  0  0  0  0  0  0  0  0
   11.1031    7.2496   27.1189 C   0  0  0  0  0  0  0  0  0  0  0  0
    9.7985    6.8666   26.9738 C   0  0  0  0  0  0  0  0  0  0  0  0
    9.0435    7.4184   25.9423 C   0  0  0  0  0  0  0  0  0  0  0  0
    7.7495    7.2778   25.5134 N   0  0  0  0  0  0  0  0  0  0  0  0
    7.0878    6.6967   25.9204 H   0  0  0  0  0  0  0  0  0  0  0  0
  1  2  1  0  0  0  0
  1  7  1  0  0  0  0
  2  3  1  0  0  0  0
  3  4  1  0  0  0  0
  4  5  1  0  0  0  0
  4 19  1  0  0  0  0
  5  6  2  0  0  0  0
  5  7  1  0  0  0  0
  8  9  2  0  0  0  0
  8 10  2  0  0  0  0
  8  1  1  0  0  0  0
 11 12  2  0  0  0  0
 12  8  1  0  0  0  0
 13 14  1  0  0  0  0
 13 17  2  0  0  0  0
 14 15  2  0  0  0  0
 15 16  1  0  0  0  0
 15 18  1  0  0  0  0
 16 17  1  0  0  0  0
 17 11  1  0  0  0  0
 19 20  1  0  0  0  0
 20 21  2  0  0  0  0
 20 28  1  0  0  0  0
 21 22  1  0  0  0  0
 22 23  2  0  0  0  0
 22 27  1  0  0  0  0
 23 24  1  0  0  0  0
 24 25  2  0  0  0  0
 25 26  1  0  0  0  0
 26 27  2  0  0  0  0
 27 28  1  0  0  0  0
 28 29  1  0  0  0  0
M  END
>  <minimizedAffinity>
-10.06327

$$$$
