ZINC01494901
 OpenBabel07192215303D

 39 43  0  0  0  0  0  0  0  0999 V2000
    4.1080    4.7430   22.4843 C   0  0  0  0  0  0  0  0  0  0  0  0
    3.5923    4.5623   21.3978 O   0  0  0  0  0  0  0  0  0  0  0  0
    5.2619    4.1181   22.7949 N   0  0  0  0  0  0  0  0  0  0  0  0
    5.6279    4.1938   23.6904 H   0  0  0  0  0  0  0  0  0  0  0  0
    0.7651    6.7998   25.6997 C   0  0  0  0  0  0  0  0  0  0  0  0
    2.0087    6.5625   24.8824 C   0  0  0  0  0  0  0  0  0  0  0  0
    2.2178    5.4908   24.0176 C   0  0  0  0  0  0  0  0  0  0  0  0
    3.4732    5.6405   23.4599 C   0  0  0  0  0  0  0  0  0  0  0  0
    4.0133    6.7814   23.9900 N   0  0  0  0  0  0  0  0  0  0  0  0
    3.0711    7.3295   24.8689 N   0  0  0  0  0  0  0  0  0  0  0  0
    5.2776    7.3087   23.7011 C   0  0  0  0  0  0  0  0  0  0  0  0
    6.2590    7.2924   24.6666 C   0  0  0  0  0  0  0  0  0  0  0  0
    7.5248    7.8274   24.3755 C   0  0  0  0  0  0  0  0  0  0  0  0
    8.5535    7.8244   25.3340 C   0  0  0  0  0  0  0  0  0  0  0  0
    9.7701    8.3446   25.0168 C   0  0  0  0  0  0  0  0  0  0  0  0
   10.0155    8.8768   23.7522 C   0  0  0  0  0  0  0  0  0  0  0  0
    9.0461    8.8922   22.7986 C   0  0  0  0  0  0  0  0  0  0  0  0
    7.7762    8.3644   23.0874 C   0  0  0  0  0  0  0  0  0  0  0  0
    6.7527    8.3647   22.1245 C   0  0  0  0  0  0  0  0  0  0  0  0
    5.5310    7.8466   22.4314 C   0  0  0  0  0  0  0  0  0  0  0  0
    4.5520    7.8505   21.5007 F   0  0  0  0  0  0  0  0  0  0  0  0
    5.9293    3.3617   21.8281 C   0  0  0  0  0  0  0  0  0  0  0  0
    5.7738    1.9807   21.7978 C   0  0  0  0  0  0  0  0  0  0  0  0
    6.4263    1.2329   20.8408 C   0  0  0  0  0  0  0  0  0  0  0  0
    7.2517    1.8628   19.9101 C   0  0  0  0  0  0  0  0  0  0  0  0
    7.4106    3.2470   19.9463 C   0  0  0  0  0  0  0  0  0  0  0  0
    6.7510    3.9908   20.9013 C   0  0  0  0  0  0  0  0  0  0  0  0
    7.9600    1.0594   18.8835 C   0  0  0  0  0  0  0  0  0  0  0  0
    9.2960    0.7068   19.0704 C   0  0  0  0  0  0  0  0  0  0  0  0
    9.9502   -0.0397   18.1117 C   0  0  0  0  0  0  0  0  0  0  0  0
    9.2821   -0.4380   16.9674 C   0  0  0  0  0  0  0  0  0  0  0  0
    7.9570   -0.0916   16.7770 C   0  0  0  0  0  0  0  0  0  0  0  0
    7.2910    0.6502   17.7311 C   0  0  0  0  0  0  0  0  0  0  0  0
    5.6008    1.0842   17.4909 S   0  0  0  0  0  0  0  0  0  0  0  0
    4.8474    0.3095   18.4141 O   0  0  0  0  0  0  0  0  0  0  0  0
    5.5457    2.5033   17.4647 O   0  0  0  0  0  0  0  0  0  0  0  0
    5.1719    0.5654   15.9787 N   0  0  0  0  0  0  0  0  0  0  0  0
    5.8228    0.1154   15.4164 H   0  0  0  0  0  0  0  0  0  0  0  0
    4.2697    0.7114   15.6528 H   0  0  0  0  0  0  0  0  0  0  0  0
  1  2  2  0  0  0  0
  1  3  1  0  0  0  0
  3 22  1  0  0  0  0
  3  4  1  0  0  0  0
  5  6  1  0  0  0  0
  6  7  1  0  0  0  0
  6 10  2  0  0  0  0
  7  8  2  0  0  0  0
  8  9  1  0  0  0  0
  8  1  1  0  0  0  0
  9 10  1  0  0  0  0
  9 11  1  0  0  0  0
 11 12  2  0  0  0  0
 11 20  1  0  0  0  0
 12 13  1  0  0  0  0
 13 14  2  0  0  0  0
 13 18  1  0  0  0  0
 14 15  1  0  0  0  0
 15 16  2  0  0  0  0
 16 17  1  0  0  0  0
 17 18  2  0  0  0  0
 18 19  1  0  0  0  0
 19 20  2  0  0  0  0
 20 21  1  0  0  0  0
 22 23  2  0  0  0  0
 22 27  1  0  0  0  0
 23 24  1  0  0  0  0
 24 25  2  0  0  0  0
 25 26  1  0  0  0  0
 25 28  1  0  0  0  0
 26 27  2  0  0  0  0
 28 29  2  0  0  0  0
 28 33  1  0  0  0  0
 29 30  1  0  0  0  0
 30 31  2  0  0  0  0
 31 32  1  0  0  0  0
 32 33  2  0  0  0  0
 33 34  1  0  0  0  0
 34 35  2  0  0  0  0
 34 36  2  0  0  0  0
 34 37  1  0  0  0  0
 37 38  1  0  0  0  0
 37 39  1  0  0  0  0
M  END
>  <minimizedAffinity>
-11.83586

$$$$
