ZINC01033024
 OpenBabel07192215303D

 32 35  0  0  0  0  0  0  0  0999 V2000
    8.3457    0.7293   18.9677 C   0  0  0  0  0  0  0  0  0  0  0  0
    7.5036    1.5398   19.9188 C   0  0  0  0  0  0  0  0  0  0  0  0
    6.6496    0.8974   20.8025 C   0  0  0  0  0  0  0  0  0  0  0  0
    5.8730    1.6270   21.6786 C   0  0  0  0  0  0  0  0  0  0  0  0
    5.9438    3.0141   21.6812 C   0  0  0  0  0  0  0  0  0  0  0  0
    6.8072    3.6676   20.7892 C   0  0  0  0  0  0  0  0  0  0  0  0
    7.5867    2.9146   19.9079 C   0  0  0  0  0  0  0  0  0  0  0  0
    6.8959    5.1400   20.7859 C   0  0  0  0  0  0  0  0  0  0  0  0
    6.2798    5.7833   19.9583 O   0  0  0  0  0  0  0  0  0  0  0  0
    7.6582    5.7713   21.7001 N   0  0  0  0  0  0  0  0  0  0  0  0
    8.0939    5.2633   22.4017 H   0  0  0  0  0  0  0  0  0  0  0  0
    7.8213    7.1599   21.6369 C   0  0  0  0  0  0  0  0  0  0  0  0
    7.3231    7.9651   22.6521 C   0  0  0  0  0  0  0  0  0  0  0  0
    7.4900    9.3344   22.5909 C   0  0  0  0  0  0  0  0  0  0  0  0
    8.1442    9.9063   21.5114 C   0  0  0  0  0  0  0  0  0  0  0  0
    8.6379    9.1048   20.4959 C   0  0  0  0  0  0  0  0  0  0  0  0
    8.4780    7.7340   20.5568 C   0  0  0  0  0  0  0  0  0  0  0  0
    8.3021   11.2459   21.4505 F   0  0  0  0  0  0  0  0  0  0  0  0
    5.1616    3.7529   22.5654 N   0  0  0  0  0  0  0  0  0  0  0  0
    3.8907    4.0636   22.2413 C   0  0  0  0  0  0  0  0  0  0  0  0
    3.3949    3.6188   21.2233 O   0  0  0  0  0  0  0  0  0  0  0  0
    5.5315    4.0434   23.4134 H   0  0  0  0  0  0  0  0  0  0  0  0
    3.1037    4.9391   23.1181 C   0  0  0  0  0  0  0  0  0  0  0  0
    3.1033    6.2992   23.1803 C   0  0  0  0  0  0  0  0  0  0  0  0
    2.2644    6.9590   24.0983 C   0  0  0  0  0  0  0  0  0  0  0  0
    2.1196    8.3542   24.3088 C   0  0  0  0  0  0  0  0  0  0  0  0
    1.2613    8.8293   25.2483 C   0  0  0  0  0  0  0  0  0  0  0  0
    0.4959    7.9752   26.0339 C   0  0  0  0  0  0  0  0  0  0  0  0
    0.6050    6.6113   25.8605 C   0  0  0  0  0  0  0  0  0  0  0  0
    1.4728    6.1145   24.9111 C   0  0  0  0  0  0  0  0  0  0  0  0
    1.9169    4.4827   24.3706 S   0  0  0  0  0  0  0  0  0  0  0  0
    4.1333    7.2182   22.1275 Cl  0  0  0  0  0  0  0  0  0  0  0  0
  1  2  1  0  0  0  0
  2  3  2  0  0  0  0
  2  7  1  0  0  0  0
  3  4  1  0  0  0  0
  4  5  2  0  0  0  0
  5  6  1  0  0  0  0
  5 19  1  0  0  0  0
  6  7  2  0  0  0  0
  6  8  1  0  0  0  0
  8  9  2  0  0  0  0
  8 10  1  0  0  0  0
 10 12  1  0  0  0  0
 10 11  1  0  0  0  0
 12 13  2  0  0  0  0
 12 17  1  0  0  0  0
 13 14  1  0  0  0  0
 14 15  2  0  0  0  0
 15 16  1  0  0  0  0
 15 18  1  0  0  0  0
 16 17  2  0  0  0  0
 19 20  1  0  0  0  0
 19 22  1  0  0  0  0
 20 21  2  0  0  0  0
 20 23  1  0  0  0  0
 23 24  2  0  0  0  0
 23 31  1  0  0  0  0
 24 25  1  0  0  0  0
 24 32  1  0  0  0  0
 25 26  2  0  0  0  0
 25 30  1  0  0  0  0
 26 27  1  0  0  0  0
 27 28  2  0  0  0  0
 28 29  1  0  0  0  0
 29 30  2  0  0  0  0
 30 31  1  0  0  0  0
M  END
>  <minimizedAffinity>
-9.29363

$$$$
