ZINC00538264


 40 44  0  0  0  0  0  0  0  0999 V2000
    7.6458    2.5127   20.2374 C   0  0  0  0  0  0  0  0  0  0  0  0
    6.7844    1.4684   20.5793 C   0  0  0  0  0  0  0  0  0  0  0  0
    5.6574    1.7046   21.3128 C   0  0  0  0  0  0  0  0  0  0  0  0
    5.3612    3.0032   21.7258 C   0  0  0  0  0  0  0  0  0  0  0  0
    4.1664    3.3214   22.5153 C   0  0  0  0  0  0  0  0  0  0  0  0
    3.2638    2.3258   22.8924 C   0  0  0  0  0  0  0  0  0  0  0  0
    2.1594    2.6485   23.6262 C   0  0  0  0  0  0  0  0  0  0  0  0
    1.9217    3.9705   24.0074 C   0  0  0  0  0  0  0  0  0  0  0  0
    2.7984    4.9742   23.6479 C   0  0  0  0  0  0  0  0  0  0  0  0
    3.9402    4.6662   22.8931 C   0  0  0  0  0  0  0  0  0  0  0  0
    4.7964    5.6379   22.5392 N   0  0  0  0  0  0  0  0  0  0  0  0
    5.8841    5.4201   21.8343 C   0  0  0  0  0  0  0  0  0  0  0  0
    6.2265    4.0683   21.3843 C   0  0  0  0  0  0  0  0  0  0  0  0
    7.3741    3.8089   20.6342 C   0  0  0  0  0  0  0  0  0  0  0  0
    4.5033    7.0097   22.9606 C   0  0  0  0  0  0  0  0  0  0  0  0
    0.7902    4.2799   24.7638 N   0  0  0  0  0  0  0  0  0  0  0  0
    0.6219    5.1958   25.0336 H   0  0  0  0  0  0  0  0  0  0  0  0
    0.1708    3.5781   25.0185 H   0  0  0  0  0  0  0  0  0  0  0  0
    6.7706    6.5525   21.4917 C   0  0  0  0  0  0  0  0  0  0  0  0
    6.5837    7.2517   20.2977 C   0  0  0  0  0  0  0  0  0  0  0  0
    7.4089    8.3103   19.9850 C   0  0  0  0  0  0  0  0  0  0  0  0
    8.4332    8.6760   20.8524 C   0  0  0  0  0  0  0  0  0  0  0  0
    8.6251    7.9778   22.0404 C   0  0  0  0  0  0  0  0  0  0  0  0
    7.8012    6.9216   22.3605 C   0  0  0  0  0  0  0  0  0  0  0  0
    9.2689    9.7432   20.5300 N   0  0  0  0  0  0  0  0  0  0  0  0
    9.9840    9.9985   21.1333 H   0  0  0  0  0  0  0  0  0  0  0  0
    9.1360   10.2307   19.7015 H   0  0  0  0  0  0  0  0  0  0  0  0
    8.7932    2.2448   19.4853 N   0  0  0  0  0  0  0  0  0  0  0  0
    9.5691    2.8221   19.5615 H   0  0  0  0  0  0  0  0  0  0  0  0
    6.5754   -0.6917   16.2165 C   0  0  0  0  0  0  0  0  0  0  0  0
    7.7676   -0.2830   17.0423 C   0  0  0  0  0  0  0  0  0  0  0  0
    7.6937    0.8104   17.8823 C   0  0  0  0  0  0  0  0  0  0  0  0
    8.8221    1.1547   18.6298 C   0  0  0  0  0  0  0  0  0  0  0  0
    9.9261    0.4248   18.5042 N   0  0  0  0  0  0  0  0  0  0  0  0
    9.9544   -0.6202   17.6914 C   0  0  0  0  0  0  0  0  0  0  0  0
    8.8989   -0.9697   16.9705 N   0  0  0  0  0  0  0  0  0  0  0  0
    8.9835   -2.1313   16.0817 C   0  0  0  0  0  0  0  0  0  0  0  0
   11.1171   -1.3628   17.5870 N   0  0  0  0  0  0  0  0  0  0  0  0
   11.1805   -2.0777   16.9341 H   0  0  0  0  0  0  0  0  0  0  0  0
   11.8708   -1.1682   18.1677 H   0  0  0  0  0  0  0  0  0  0  0  0
 30 31  1  0  0  0
 31 32  1  0  0  0
 31 36  1  0  0  0
 32 33  2  0  0  0
 33 34  1  0  0  0
 33 28  1  0  0  0
 34 35  2  0  0  0
 35 36  1  0  0  0
 35 38  1  0  0  0
 36 37  1  0  0  0
 38 39  1  0  0  0
 38 40  1  0  0  0
 28  1  1  0  0  0
 28 29  1  0  0  0
  1  2  1  0  0  0
  1 14  2  0  0  0
  2  3  2  0  0  0
  3  4  1  0  0  0
  4  5  2  0  0  0
  4 13  1  0  0  0
  5  6  1  0  0  0
  5 10  1  0  0  0
  6  7  1  0  0  0
  7  8  2  0  0  0
  8  9  1  0  0  0
  8 16  1  0  0  0
  9 10  2  0  0  0
 10 11  1  0  0  0
 11 12  1  0  0  0
 11 15  1  0  0  0
 12 13  2  0  0  0
 12 19  1  0  0  0
 13 14  1  0  0  0
 19 20  2  0  0  0
 19 24  1  0  0  0
 20 21  1  0  0  0
 21 22  2  0  0  0
 22 23  1  0  0  0
 22 25  1  0  0  0
 23 24  2  0  0  0
 25 26  1  0  0  0
 25 27  1  0  0  0
 16 17  1  0  0  0
 16 18  1  0  0  0
M  END
> <minimizedAffinity>
-9.80772

$$$$
ZINC00538264


 40 44  0  0  0  0  0  0  0  0999 V2000
    6.8963    2.6916   20.8861 C   0  0  0  0  0  0  0  0  0  0  0  0
    5.8596    1.8432   21.2796 C   0  0  0  0  0  0  0  0  0  0  0  0
    4.7980    2.3217   21.9923 C   0  0  0  0  0  0  0  0  0  0  0  0
    4.7464    3.6733   22.3316 C   0  0  0  0  0  0  0  0  0  0  0  0
    3.6334    4.2479   23.0953 C   0  0  0  0  0  0  0  0  0  0  0  0
    2.5653    3.4567   23.5210 C   0  0  0  0  0  0  0  0  0  0  0  0
    1.5417    4.0160   24.2294 C   0  0  0  0  0  0  0  0  0  0  0  0
    1.5518    5.3781   24.5360 C   0  0  0  0  0  0  0  0  0  0  0  0
    2.5960    6.1829   24.1272 C   0  0  0  0  0  0  0  0  0  0  0  0
    3.6589    5.6301   23.3973 C   0  0  0  0  0  0  0  0  0  0  0  0
    4.6771    6.4076   22.9959 N   0  0  0  0  0  0  0  0  0  0  0  0
    5.7036    5.9559   22.3105 C   0  0  0  0  0  0  0  0  0  0  0  0
    5.7907    4.5415   21.9374 C   0  0  0  0  0  0  0  0  0  0  0  0
    6.8682    4.0355   21.2096 C   0  0  0  0  0  0  0  0  0  0  0  0
    4.6420    7.8309   23.3396 C   0  0  0  0  0  0  0  0  0  0  0  0
    0.4992    5.9306   25.2675 N   0  0  0  0  0  0  0  0  0  0  0  0
    0.5026    6.8753   25.4857 H   0  0  0  0  0  0  0  0  0  0  0  0
   -0.2372    5.3691   25.5566 H   0  0  0  0  0  0  0  0  0  0  0  0
    6.7811    6.8862   21.9116 C   0  0  0  0  0  0  0  0  0  0  0  0
    7.7652    7.2533   22.8315 C   0  0  0  0  0  0  0  0  0  0  0  0
    8.7711    8.1165   22.4538 C   0  0  0  0  0  0  0  0  0  0  0  0
    8.8008    8.6295   21.1610 C   0  0  0  0  0  0  0  0  0  0  0  0
    7.8186    8.2695   20.2439 C   0  0  0  0  0  0  0  0  0  0  0  0
    6.8131    7.4041   20.6141 C   0  0  0  0  0  0  0  0  0  0  0  0
    9.8161    9.5063   20.7846 N   0  0  0  0  0  0  0  0  0  0  0  0
    9.8375    9.8655   19.8840 H   0  0  0  0  0  0  0  0  0  0  0  0
   10.5016    9.7582   21.4236 H   0  0  0  0  0  0  0  0  0  0  0  0
    7.9721    2.1772   20.1567 N   0  0  0  0  0  0  0  0  0  0  0  0
    8.8813    2.4044   20.4075 H   0  0  0  0  0  0  0  0  0  0  0  0
    9.5687   -1.1339   16.8836 C   0  0  0  0  0  0  0  0  0  0  0  0
    8.4912   -0.2638   17.4767 C   0  0  0  0  0  0  0  0  0  0  0  0
    8.7677    0.5528   18.5554 C   0  0  0  0  0  0  0  0  0  0  0  0
    7.7398    1.3432   19.0744 C   0  0  0  0  0  0  0  0  0  0  0  0
    6.5339    1.2793   18.5185 N   0  0  0  0  0  0  0  0  0  0  0  0
    6.3109    0.4871   17.4811 C   0  0  0  0  0  0  0  0  0  0  0  0
    7.2673   -0.2734   16.9683 N   0  0  0  0  0  0  0  0  0  0  0  0
    6.9677   -1.1369   15.8233 C   0  0  0  0  0  0  0  0  0  0  0  0
    5.0461    0.4472   16.9218 N   0  0  0  0  0  0  0  0  0  0  0  0
    4.8456   -0.1895   16.2177 H   0  0  0  0  0  0  0  0  0  0  0  0
    4.3581    1.0570   17.2344 H   0  0  0  0  0  0  0  0  0  0  0  0
 30 31  1  0  0  0
 31 32  1  0  0  0
 31 36  1  0  0  0
 32 33  2  0  0  0
 33 34  1  0  0  0
 33 28  1  0  0  0
 34 35  2  0  0  0
 35 36  1  0  0  0
 35 38  1  0  0  0
 36 37  1  0  0  0
 38 39  1  0  0  0
 38 40  1  0  0  0
 28  1  1  0  0  0
 28 29  1  0  0  0
  1  2  1  0  0  0
  1 14  2  0  0  0
  2  3  2  0  0  0
  3  4  1  0  0  0
  4  5  2  0  0  0
  4 13  1  0  0  0
  5  6  1  0  0  0
  5 10  1  0  0  0
  6  7  1  0  0  0
  7  8  2  0  0  0
  8  9  1  0  0  0
  8 16  1  0  0  0
  9 10  2  0  0  0
 10 11  1  0  0  0
 11 12  1  0  0  0
 11 15  1  0  0  0
 12 13  2  0  0  0
 12 19  1  0  0  0
 13 14  1  0  0  0
 19 20  2  0  0  0
 19 24  1  0  0  0
 20 21  1  0  0  0
 21 22  2  0  0  0
 22 23  1  0  0  0
 22 25  1  0  0  0
 23 24  2  0  0  0
 25 26  1  0  0  0
 25 27  1  0  0  0
 16 17  1  0  0  0
 16 18  1  0  0  0
M  END
> <minimizedAffinity>
-9.26603

$$$$
ZINC00538264


 40 44  0  0  0  0  0  0  0  0999 V2000
    9.3056   -0.4780   17.4062 C   0  0  0  0  0  0  0  0  0  0  0  0
    9.6748    0.1451   18.5998 C   0  0  0  0  0  0  0  0  0  0  0  0
    8.8562    1.0648   19.1897 C   0  0  0  0  0  0  0  0  0  0  0  0
    7.6365    1.3864   18.5950 C   0  0  0  0  0  0  0  0  0  0  0  0
    6.7135    2.3655   19.1794 C   0  0  0  0  0  0  0  0  0  0  0  0
    7.0203    3.0260   20.3701 C   0  0  0  0  0  0  0  0  0  0  0  0
    6.1439    3.9319   20.8932 C   0  0  0  0  0  0  0  0  0  0  0  0
    4.9377    4.2080   20.2463 C   0  0  0  0  0  0  0  0  0  0  0  0
    4.6100    3.5690   19.0675 C   0  0  0  0  0  0  0  0  0  0  0  0
    5.4952    2.6335   18.5113 C   0  0  0  0  0  0  0  0  0  0  0  0
    5.1820    2.0077   17.3656 N   0  0  0  0  0  0  0  0  0  0  0  0
    5.9639    1.1219   16.7897 C   0  0  0  0  0  0  0  0  0  0  0  0
    7.2526    0.7606   17.3864 C   0  0  0  0  0  0  0  0  0  0  0  0
    8.1015   -0.1768   16.7972 C   0  0  0  0  0  0  0  0  0  0  0  0
    3.9045    2.3289   16.7251 C   0  0  0  0  0  0  0  0  0  0  0  0
    4.0573    5.1429   20.7932 N   0  0  0  0  0  0  0  0  0  0  0  0
    3.2197    5.3405   20.3465 H   0  0  0  0  0  0  0  0  0  0  0  0
    4.2829    5.5943   21.6217 H   0  0  0  0  0  0  0  0  0  0  0  0
    5.5370    0.4835   15.5265 C   0  0  0  0  0  0  0  0  0  0  0  0
    4.6867   -0.6237   15.5541 C   0  0  0  0  0  0  0  0  0  0  0  0
    4.2867   -1.2123   14.3738 C   0  0  0  0  0  0  0  0  0  0  0  0
    4.7371   -0.7109   13.1568 C   0  0  0  0  0  0  0  0  0  0  0  0
    5.5886    0.3889   13.1266 C   0  0  0  0  0  0  0  0  0  0  0  0
    5.9886    0.9841   14.3024 C   0  0  0  0  0  0  0  0  0  0  0  0
    4.3350   -1.3123   11.9660 N   0  0  0  0  0  0  0  0  0  0  0  0
    4.6491   -0.9645   11.1170 H   0  0  0  0  0  0  0  0  0  0  0  0
    3.7413   -2.0796   11.9860 H   0  0  0  0  0  0  0  0  0  0  0  0
   10.1614   -1.4164   16.8222 N   0  0  0  0  0  0  0  0  0  0  0  0
   11.1183   -1.3590   16.9709 H   0  0  0  0  0  0  0  0  0  0  0  0
   10.7949   -5.4366   14.0541 C   0  0  0  0  0  0  0  0  0  0  0  0
    9.9252   -4.3794   14.6834 C   0  0  0  0  0  0  0  0  0  0  0  0
   10.4852   -3.3888   15.4655 C   0  0  0  0  0  0  0  0  0  0  0  0
    9.6428   -2.4285   16.0300 C   0  0  0  0  0  0  0  0  0  0  0  0
    8.3353   -2.5029   15.8007 N   0  0  0  0  0  0  0  0  0  0  0  0
    7.8381   -3.4659   15.0399 C   0  0  0  0  0  0  0  0  0  0  0  0
    8.6138   -4.3899   14.4917 N   0  0  0  0  0  0  0  0  0  0  0  0
    8.0135   -5.4378   13.6622 C   0  0  0  0  0  0  0  0  0  0  0  0
    6.4736   -3.5128   14.8161 N   0  0  0  0  0  0  0  0  0  0  0  0
    6.0855   -4.2590   14.3326 H   0  0  0  0  0  0  0  0  0  0  0  0
    5.9035   -2.7981   15.1436 H   0  0  0  0  0  0  0  0  0  0  0  0
 30 31  1  0  0  0
 31 32  1  0  0  0
 31 36  1  0  0  0
 32 33  2  0  0  0
 33 34  1  0  0  0
 33 28  1  0  0  0
 34 35  2  0  0  0
 35 36  1  0  0  0
 35 38  1  0  0  0
 36 37  1  0  0  0
 38 39  1  0  0  0
 38 40  1  0  0  0
 28  1  1  0  0  0
 28 29  1  0  0  0
  1  2  1  0  0  0
  1 14  2  0  0  0
  2  3  2  0  0  0
  3  4  1  0  0  0
  4  5  2  0  0  0
  4 13  1  0  0  0
  5  6  1  0  0  0
  5 10  1  0  0  0
  6  7  1  0  0  0
  7  8  2  0  0  0
  8  9  1  0  0  0
  8 16  1  0  0  0
  9 10  2  0  0  0
 10 11  1  0  0  0
 11 12  1  0  0  0
 11 15  1  0  0  0
 12 13  2  0  0  0
 12 19  1  0  0  0
 13 14  1  0  0  0
 19 20  2  0  0  0
 19 24  1  0  0  0
 20 21  1  0  0  0
 21 22  2  0  0  0
 22 23  1  0  0  0
 22 25  1  0  0  0
 23 24  2  0  0  0
 25 26  1  0  0  0
 25 27  1  0  0  0
 16 17  1  0  0  0
 16 18  1  0  0  0
M  END
> <minimizedAffinity>
-9.07090

$$$$
