ZINC00538264
 OpenBabel07192215303D

 40 44  0  0  0  0  0  0  0  0999 V2000
    7.6458    2.5127   20.2374 C   0  0  0  0  0  0  0  0  0  0  0  0
    6.7844    1.4684   20.5793 C   0  0  0  0  0  0  0  0  0  0  0  0
    5.6574    1.7046   21.3128 C   0  0  0  0  0  0  0  0  0  0  0  0
    5.3612    3.0032   21.7258 C   0  0  0  0  0  0  0  0  0  0  0  0
    4.1664    3.3214   22.5153 C   0  0  0  0  0  0  0  0  0  0  0  0
    3.2638    2.3258   22.8924 C   0  0  0  0  0  0  0  0  0  0  0  0
    2.1594    2.6485   23.6262 C   0  0  0  0  0  0  0  0  0  0  0  0
    1.9217    3.9705   24.0074 C   0  0  0  0  0  0  0  0  0  0  0  0
    2.7984    4.9742   23.6479 C   0  0  0  0  0  0  0  0  0  0  0  0
    3.9402    4.6662   22.8931 C   0  0  0  0  0  0  0  0  0  0  0  0
    4.7964    5.6379   22.5392 N   0  0  0  0  0  0  0  0  0  0  0  0
    5.8841    5.4201   21.8343 C   0  0  0  0  0  0  0  0  0  0  0  0
    6.2265    4.0683   21.3843 C   0  0  0  0  0  0  0  0  0  0  0  0
    7.3741    3.8089   20.6342 C   0  0  0  0  0  0  0  0  0  0  0  0
    4.5033    7.0097   22.9606 C   0  0  0  0  0  0  0  0  0  0  0  0
    0.7902    4.2799   24.7638 N   0  0  0  0  0  0  0  0  0  0  0  0
    0.6219    5.1958   25.0336 H   0  0  0  0  0  0  0  0  0  0  0  0
    0.1708    3.5781   25.0185 H   0  0  0  0  0  0  0  0  0  0  0  0
    6.7706    6.5525   21.4917 C   0  0  0  0  0  0  0  0  0  0  0  0
    6.5837    7.2517   20.2977 C   0  0  0  0  0  0  0  0  0  0  0  0
    7.4089    8.3103   19.9850 C   0  0  0  0  0  0  0  0  0  0  0  0
    8.4332    8.6760   20.8524 C   0  0  0  0  0  0  0  0  0  0  0  0
    8.6251    7.9778   22.0404 C   0  0  0  0  0  0  0  0  0  0  0  0
    7.8012    6.9216   22.3605 C   0  0  0  0  0  0  0  0  0  0  0  0
    9.2689    9.7432   20.5300 N   0  0  0  0  0  0  0  0  0  0  0  0
    9.9840    9.9985   21.1333 H   0  0  0  0  0  0  0  0  0  0  0  0
    9.1360   10.2307   19.7015 H   0  0  0  0  0  0  0  0  0  0  0  0
    8.7932    2.2448   19.4853 N   0  0  0  0  0  0  0  0  0  0  0  0
    9.5691    2.8221   19.5615 H   0  0  0  0  0  0  0  0  0  0  0  0
    6.5754   -0.6917   16.2165 C   0  0  0  0  0  0  0  0  0  0  0  0
    7.7676   -0.2830   17.0423 C   0  0  1  0  0  0  0  0  0  0  0  0
    7.6937    0.8104   17.8823 C   0  0  0  0  0  0  0  0  0  0  0  0
    8.8221    1.1547   18.6298 C   0  0  0  0  0  0  0  0  0  0  0  0
    9.9261    0.4248   18.5042 N   0  0  0  0  0  0  0  0  0  0  0  0
    9.9544   -0.6202   17.6914 C   0  0  0  0  0  0  0  0  0  0  0  0
    8.8989   -0.9697   16.9705 N   0  0  0  0  0  0  0  0  0  0  0  0
    8.9835   -2.1313   16.0817 C   0  0  0  0  0  0  0  0  0  0  0  0
   11.1171   -1.3628   17.5870 N   0  0  0  0  0  0  0  0  0  0  0  0
   11.1805   -2.0777   16.9341 H   0  0  0  0  0  0  0  0  0  0  0  0
   11.8708   -1.1682   18.1677 H   0  0  0  0  0  0  0  0  0  0  0  0
  1  2  1  0  0  0  0
  1 14  2  0  0  0  0
  2  3  2  0  0  0  0
  3  4  1  0  0  0  0
  4  5  2  0  0  0  0
  4 13  1  0  0  0  0
  5  6  1  0  0  0  0
  5 10  1  0  0  0  0
  6  7  1  0  0  0  0
  7  8  2  0  0  0  0
  8  9  1  0  0  0  0
  8 16  1  0  0  0  0
  9 10  2  0  0  0  0
 10 11  1  0  0  0  0
 11 12  1  0  0  0  0
 11 15  1  0  0  0  0
 12 13  2  0  0  0  0
 12 19  1  0  0  0  0
 13 14  1  0  0  0  0
 16 17  1  0  0  0  0
 16 18  1  0  0  0  0
 19 20  2  0  0  0  0
 19 24  1  0  0  0  0
 20 21  1  0  0  0  0
 21 22  2  0  0  0  0
 22 23  1  0  0  0  0
 22 25  1  0  0  0  0
 23 24  2  0  0  0  0
 25 26  1  0  0  0  0
 25 27  1  0  0  0  0
 28  1  1  0  0  0  0
 28 29  1  0  0  0  0
 31 30  1  1  0  0  0
 31 32  1  0  0  0  0
 31 36  1  0  0  0  0
 32 33  2  0  0  0  0
 33 34  1  0  0  0  0
 33 28  1  0  0  0  0
 34 35  2  0  0  0  0
 35 36  1  0  0  0  0
 35 38  1  0  0  0  0
 36 37  1  0  0  0  0
 38 39  1  0  0  0  0
 38 40  1  0  0  0  0
M  END
>  <minimizedAffinity>
-9.80772

$$$$
