ZINC00576547
 OpenBabel07192215303D

 36 40  0  0  0  0  0  0  0  0999 V2000
    5.1054    4.7156   20.9757 C   0  0  0  0  0  0  0  0  0  0  0  0
    6.1414    5.6583   21.1000 C   0  0  0  0  0  0  0  0  0  0  0  0
    6.2489    6.3700   22.3060 C   0  0  0  0  0  0  0  0  0  0  0  0
    5.3745    6.1295   23.2778 N   0  0  0  0  0  0  0  0  0  0  0  0
    4.4198    5.2380   23.1163 C   0  0  0  0  0  0  0  0  0  0  0  0
    4.2825    4.5404   22.0034 N   0  0  0  0  0  0  0  0  0  0  0  0
    7.3256    7.2073   22.1564 N   0  0  0  0  0  0  0  0  0  0  0  0
    7.8359    6.9971   20.9099 C   0  0  0  0  0  0  0  0  0  0  0  0
    7.1401    6.0879   20.2917 N   0  0  0  0  0  0  0  0  0  0  0  0
    7.8339    8.1522   23.1537 C   0  0  2  0  0  0  0  0  0  0  0  0
    9.3001    8.5434   22.8375 C   0  0  2  0  0  0  0  0  0  0  0  0
    9.8312    8.9648   24.2289 C   0  0  2  0  0  0  0  0  0  0  0  0
    8.8664    8.2879   25.2217 C   0  0  1  0  0  0  0  0  0  0  0  0
    7.9255    7.5230   24.4501 O   0  0  0  0  0  0  0  0  0  0  0  0
    9.7823   10.3853   24.3739 O   0  0  0  0  0  0  0  0  0  0  0  0
    9.3497    9.6372   21.9195 O   0  0  0  0  0  0  0  0  0  0  0  0
   10.0488   10.7015   25.2478 H   0  0  0  0  0  0  0  0  0  0  0  0
   10.2456    9.9182   21.6913 H   0  0  0  0  0  0  0  0  0  0  0  0
    9.6471    7.3613   26.1566 C   0  0  0  0  0  0  0  0  0  0  0  0
    9.0949    7.4370   27.4723 O   0  0  0  0  0  0  0  0  0  0  0  0
    9.5420    6.8745   28.1193 H   0  0  0  0  0  0  0  0  0  0  0  0
    4.9495    3.9842   19.8106 N   0  0  0  0  0  0  0  0  0  0  0  0
    4.4736    4.6119   19.1940 H   0  0  0  0  0  0  0  0  0  0  0  0
    6.1234    3.4298   19.1322 C   0  0  0  0  0  0  0  0  0  0  0  0
    6.6282    2.2088   19.9036 C   0  0  2  0  0  0  0  0  0  0  0  0
    8.6275   -0.4456   17.2195 C   0  0  0  0  0  0  0  0  0  0  0  0
    7.3010   -0.1182   17.0082 C   0  0  0  0  0  0  0  0  0  0  0  0
    6.6532    0.7405   17.8768 C   0  0  0  0  0  0  0  0  0  0  0  0
    7.3328    1.2725   18.9570 C   0  0  0  0  0  0  0  0  0  0  0  0
    8.6611    0.9496   19.1650 C   0  0  0  0  0  0  0  0  0  0  0  0
    9.3063    0.0859   18.2994 C   0  0  0  0  0  0  0  0  0  0  0  0
    5.4616    1.4981   20.5384 C   0  0  0  0  0  0  0  0  0  0  0  0
    5.3927    1.0836   21.8161 C   0  0  0  0  0  0  0  0  0  0  0  0
    4.1283    0.4724   21.9819 C   0  0  0  0  0  0  0  0  0  0  0  0
    3.5027    0.5427   20.7926 C   0  0  0  0  0  0  0  0  0  0  0  0
    4.3151    1.1650   19.9216 O   0  0  0  0  0  0  0  0  0  0  0  0
  1  2  2  0  0  0  0
  1  6  1  0  0  0  0
  2  3  1  0  0  0  0
  2  9  1  0  0  0  0
  3  4  2  0  0  0  0
  3  7  1  0  0  0  0
  4  5  1  0  0  0  0
  5  6  2  0  0  0  0
  7  8  1  0  0  0  0
  8  9  2  0  0  0  0
 10  7  1  6  0  0  0
 10 11  1  0  0  0  0
 10 14  1  0  0  0  0
 11 12  1  0  0  0  0
 11 16  1  6  0  0  0
 12 13  1  0  0  0  0
 12 15  1  6  0  0  0
 13 14  1  0  0  0  0
 13 19  1  1  0  0  0
 15 17  1  0  0  0  0
 16 18  1  0  0  0  0
 19 20  1  0  0  0  0
 20 21  1  0  0  0  0
 22  1  1  0  0  0  0
 22 23  1  0  0  0  0
 24 22  1  0  0  0  0
 25 24  1  6  0  0  0
 25 32  1  0  0  0  0
 26 27  2  0  0  0  0
 26 31  1  0  0  0  0
 27 28  1  0  0  0  0
 28 29  2  0  0  0  0
 29 30  1  0  0  0  0
 29 25  1  0  0  0  0
 30 31  2  0  0  0  0
 32 33  2  0  0  0  0
 32 36  1  0  0  0  0
 33 34  1  0  0  0  0
 34 35  2  0  0  0  0
 35 36  1  0  0  0  0
M  END
>  <minimizedAffinity>
-10.54112

$$$$
