# created with PyMOL 2.5.0
@<TRIPOS>MOLECULE
cocrystal/docking_cocrystal/3r9h_Z67_LIG.pdb
41 43 1                 
SMALL
USER_CHARGES
@<TRIPOS>ATOM
1	 H05	-10.358	207.612	109.656	 H	1	UNK0	0.000	
2	 H11	-18.012	201.203	117.206	 H	1	UNK0	0.000	
3	 H06	-14.555	206.442	109.302	 H	1	UNK0	0.000	
4	 H03	-12.443	204.302	113.244	 H	1	UNK0	0.000	
5	 H04	-12.504	207.548	108.337	 H	1	UNK0	0.000	
6	 H09	-15.168	203.780	120.501	 H	1	UNK0	0.000	
7	 H13	-20.265	204.411	119.182	 H	1	UNK0	0.000	
8	 H12	-19.574	204.068	120.640	 H	1	UNK0	0.000	
9	 H02	-9.384	204.353	116.977	 H	1	UNK0	0.000	
10	 H07	-13.298	202.419	119.020	 H	1	UNK0	0.000	
11	 H10	-15.558	201.484	116.790	 H	1	UNK0	0.000	
12	 H08	-17.628	203.498	120.912	 H	1	UNK0	0.000	
13	 H01	-9.688	205.348	115.571	 H	1	UNK0	0.000	
14	  C1	-12.363	204.984	115.601	C.2	1	UNK0	0.000	
15	  C2	-11.394	204.495	116.424	C.2	1	UNK0	0.000	
16	  N1	-11.889	203.689	117.445	N.2	1	UNK0	0.000	
17	  C3	-13.205	203.573	117.410	C.2	1	UNK0	0.000	
18	  S1	-13.957	204.426	116.089	S.3	1	UNK0	0.000	
19	  N2	-10.030	204.756	116.314	N.pl3	1	UNK0	0.000	
20	  C4	-12.265	205.887	114.442	C.2	1	UNK0	0.000	
21	  O1	-12.155	207.101	114.630	O.2	1	UNK0	0.000	
22	  N3	-12.362	205.309	113.235	N.pl3	1	UNK0	0.000	
23	  C5	-12.462	207.097	109.329	C.2	1	UNK0	0.000	
24	  C6	-11.242	207.134	110.078	C.2	1	UNK0	0.000	
25	  C7	-11.183	206.541	111.386	C.2	1	UNK0	0.000	
26	  C8	-12.367	205.907	111.943	C.2	1	UNK0	0.000	
27	  C9	-13.581	205.880	111.179	C.2	1	UNK0	0.000	
28	 C10	-13.630	206.470	109.878	C.2	1	UNK0	0.000	
29	  F1	-14.698	205.291	111.700	 F	1	UNK0	0.000	
30	  F2	-10.011	206.588	112.076	 F	1	UNK0	0.000	
31	  N4	-13.905	202.879	118.356	N.pl3	1	UNK0	0.000	
32	 C11	-17.961	202.342	119.070	C.2	1	UNK0	0.000	
33	 C12	-17.167	203.071	120.021	C.2	1	UNK0	0.000	
34	 C13	-15.783	203.229	119.789	C.2	1	UNK0	0.000	
35	 C14	-15.193	202.661	118.615	C.2	1	UNK0	0.000	
36	 C15	-16.013	201.921	117.679	C.2	1	UNK0	0.000	
37	 C16	-17.393	201.761	117.908	C.2	1	UNK0	0.000	
38	  S2	-19.688	202.225	119.328	S.o2	1	UNK0	0.000	
39	  O2	-19.815	201.226	120.391	O.2	1	UNK0	0.000	
40	  N5	-20.221	203.741	119.937	N.3	1	UNK0	0.000	
41	  O3	-20.335	201.982	118.024	O.2	1	UNK0	0.000	
@<TRIPOS>BOND
1 14 15 2
2 14 18 1
3 14 20 1
4 15 16 1
5 15 19 1
6 16 17 2
7 17 18 1
8 17 31 1
9 9 19 1
10 13 19 1
11 20 21 2
12 20 22 1
13 4 22 1
14 22 26 1
15 5 23 1
16 23 24 2
17 23 28 1
18 1 24 1
19 24 25 1
20 25 26 2
21 25 30 1
22 26 27 1
23 27 28 2
24 27 29 1
25 3 28 1
26 10 31 1
27 31 35 1
28 32 33 2
29 32 37 1
30 32 38 1
31 12 33 1
32 33 34 1
33 6 34 1
34 34 35 2
35 35 36 1
36 11 36 1
37 36 37 2
38 2 37 1
39 38 39 2
40 38 40 1
41 38 41 2
42 7 40 1
43 8 40 1
@<TRIPOS>SUBSTRUCTURE
1	UNK0	1	GROUP	1 ****	UNK
