# created with PyMOL 2.5.0
@<TRIPOS>MOLECULE
MOL
42 44 1                 
SMALL
USER_CHARGES
@<TRIPOS>ATOM
1	 H06	6.740	11.490	21.810	 H	1	UNK0	0.000	
2	 H07	8.630	12.960	23.920	 H	1	UNK0	0.000	
3	 H11	5.530	7.970	25.230	 H	1	UNK0	0.000	
4	 H12	4.520	7.510	23.820	 H	1	UNK0	0.000	
5	 H09	5.890	16.480	26.030	 H	1	UNK0	0.000	
6	 H01	6.130	8.260	22.590	 H	1	UNK0	0.000	
7	 H14	0.930	5.190	22.280	 H	1	UNK0	0.000	
8	 H15	0.020	8.190	23.460	 H	1	UNK0	0.000	
9	 H05	8.370	10.470	21.170	 H	1	UNK0	0.000	
10	 H03	8.390	7.880	22.980	 H	1	UNK0	0.000	
11	 H10	2.230	13.070	24.360	 H	1	UNK0	0.000	
12	 H02	7.340	9.460	25.120	 H	1	UNK0	0.000	
13	 H13	2.310	11.220	23.150	 H	1	UNK0	0.000	
14	 H04	8.830	10.870	23.570	 H	1	UNK0	0.000	
15	 H08	4.160	16.680	26.230	 H	1	UNK0	0.000	
16	  C1	6.030	8.960	23.430	C.3	1	UNK0	0.000	
17	  O1	5.570	10.330	23.120	O.3	1	UNK0	0.000	
18	  C2	7.390	9.210	24.060	C.3	1	UNK0	0.000	
19	  O2	8.220	8.030	23.910	O.3	1	UNK0	0.000	
20	  C3	7.990	10.340	23.130	C.3	1	UNK0	0.000	
21	  O3	8.410	9.790	21.850	O.3	1	UNK0	0.000	
22	  C4	6.700	11.170	22.840	C.3	1	UNK0	0.000	
23	  N1	6.590	12.410	23.720	N.pl3	1	UNK0	0.000	
24	  C5	7.580	13.180	24.120	C.2	1	UNK0	0.000	
25	  N2	7.180	14.200	24.770	N.2	1	UNK0	0.000	
26	  C6	5.790	14.090	24.800	C.2	1	UNK0	0.000	
27	  C7	4.740	14.910	25.320	C.2	1	UNK0	0.000	
28	  N3	4.950	16.130	25.910	N.pl3	1	UNK0	0.000	
29	  N4	3.480	14.490	25.140	N.2	1	UNK0	0.000	
30	  C8	3.270	13.370	24.480	C.2	1	UNK0	0.000	
31	  N5	4.180	12.560	23.940	N.2	1	UNK0	0.000	
32	  C9	5.420	12.980	24.140	C.2	1	UNK0	0.000	
33	 C10	5.010	8.330	24.340	C.3	1	UNK0	0.000	
34	  O4	4.000	9.280	24.770	O.3	1	UNK0	0.000	
35	  P1	2.640	9.400	23.940	P.3	1	UNK0	0.000	
36	  O5	1.510	9.520	24.920	O.co2	1	UNK0	0.000	
37	  O6	2.740	10.410	22.870	O.3	1	UNK0	0.000	
38	  O7	2.520	7.920	23.280	O.3	1	UNK0	0.000	
39	  P2	1.460	6.780	23.480	P.3	1	UNK0	0.000	
40	  O8	1.280	6.070	22.140	O.3	1	UNK0	0.000	
41	  O9	0.240	7.440	24.010	O.3	1	UNK0	0.000	
42	 O10	2.230	5.900	24.510	O.co2	1	UNK0	0.000	
@<TRIPOS>BOND
1 6 16 1
2 16 17 1
3 16 18 1
4 16 33 1
5 17 22 1
6 12 18 1
7 18 19 1
8 18 20 1
9 10 19 1
10 14 20 1
11 20 21 1
12 20 22 1
13 9 21 1
14 1 22 1
15 22 23 1
16 23 24 1
17 23 32 1
18 2 24 1
19 24 25 2
20 25 26 1
21 26 27 2
22 26 32 1
23 27 28 1
24 27 29 1
25 5 28 1
26 15 28 1
27 29 30 2
28 11 30 1
29 30 31 1
30 31 32 2
31 3 33 1
32 4 33 1
33 33 34 1
34 34 35 1
35 35 36 2
36 35 37 1
37 35 38 1
38 13 37 1
39 38 39 1
40 39 40 1
41 39 41 1
42 39 42 2
43 7 40 1
44 8 41 1
@<TRIPOS>SUBSTRUCTURE
1	UNK0	1	GROUP	1 ****	UNK
