# created with PyMOL 2.5.0
@<TRIPOS>MOLECULE
MOL
27 29 1                 
SMALL
USER_CHARGES
@<TRIPOS>ATOM
1	  C1	4.496	12.538	19.299	C.3	1	UNK0	0.000	
2	  O1	4.729	13.759	18.499	O.3	1	UNK0	0.000	
3	  C2	5.373	12.778	20.517	C.3	1	UNK0	0.000	
4	  O2	5.726	11.506	21.119	O.3	1	UNK0	0.000	
5	  C3	6.685	13.385	19.874	C.3	1	UNK0	0.000	
6	  O3	7.464	12.351	19.210	O.3	1	UNK0	0.000	
7	  C4	6.057	14.250	18.736	C.3	1	UNK0	0.000	
8	  N1	5.952	15.724	19.109	N.pl3	1	UNK0	0.000	
9	  C5	6.813	16.417	19.823	C.2	1	UNK0	0.000	
10	  N2	6.512	17.653	19.897	N.2	1	UNK0	0.000	
11	  C6	5.337	17.785	19.158	C.2	1	UNK0	0.000	
12	  C7	4.507	18.894	18.802	C.2	1	UNK0	0.000	
13	  N3	4.794	20.194	19.130	N.pl3	1	UNK0	0.000	
14	  N4	3.436	18.645	18.036	N.2	1	UNK0	0.000	
15	  C8	3.215	17.411	17.631	C.2	1	UNK0	0.000	
16	  N5	3.945	16.327	17.889	N.2	1	UNK0	0.000	
17	  C9	4.990	16.586	18.660	C.2	1	UNK0	0.000	
18	 C10	3.020	12.451	19.581	C.3	1	UNK0	0.000	
19	  O4	2.309	13.640	19.149	O.3	1	UNK0	0.000	
20	  P1	1.652	13.669	17.693	P.3	1	UNK0	0.000	
21	  O5	0.302	14.314	17.808	O.co2	1	UNK0	0.000	
22	  O6	2.588	14.196	16.681	O.co2	1	UNK0	0.000	
23	  O7	1.386	12.091	17.416	O.3	1	UNK0	0.000	
24	  P2	0.053	11.285	17.219	P.3	1	UNK0	0.000	
25	  O8	0.323	10.178	16.202	O.co2	1	UNK0	0.000	
26	  O9	-0.972	12.277	16.809	O.co2	1	UNK0	0.000	
27	 O10	-0.116	10.724	18.663	O.co2	1	UNK0	0.000	
@<TRIPOS>BOND
1 1 2 1
2 1 3 1
3 1 18 1
4 2 7 1
5 3 4 1
6 3 5 1
7 5 6 1
8 5 7 1
9 7 8 1
10 8 9 1
11 8 17 1
12 9 10 2
13 10 11 1
14 11 12 2
15 11 17 1
16 12 13 1
17 12 14 1
18 14 15 2
19 15 16 1
20 16 17 2
21 18 19 1
22 19 20 1
23 20 21 2
24 20 22 1
25 20 23 1
26 23 24 1
27 24 25 1
28 24 26 1
29 24 27 2
@<TRIPOS>SUBSTRUCTURE
1	UNK0	1	GROUP	1 ****	UNK
