# created with PyMOL 2.5.0
@<TRIPOS>MOLECULE
MOL
42 44 1                 
SMALL
USER_CHARGES
@<TRIPOS>ATOM
1	 H06	7.450	10.750	21.670	 H	1	UNK0	0.000	
2	 H07	9.720	11.590	23.570	 H	1	UNK0	0.000	
3	 H11	4.330	7.070	23.420	 H	1	UNK0	0.000	
4	 H12	3.480	8.500	22.840	 H	1	UNK0	0.000	
5	 H09	7.870	16.030	25.860	 H	1	UNK0	0.000	
6	 H01	5.660	8.280	21.710	 H	1	UNK0	0.000	
7	 H14	1.400	5.800	25.680	 H	1	UNK0	0.000	
8	 H15	-0.210	7.050	25.320	 H	1	UNK0	0.000	
9	 H05	9.650	9.610	22.180	 H	1	UNK0	0.000	
10	 H03	7.460	6.730	22.180	 H	1	UNK0	0.000	
11	 H10	3.420	14.020	24.130	 H	1	UNK0	0.000	
12	 H02	6.720	8.160	24.540	 H	1	UNK0	0.000	
13	 H13	3.930	11.240	24.190	 H	1	UNK0	0.000	
14	 H04	8.530	9.490	24.120	 H	1	UNK0	0.000	
15	 H08	6.270	16.650	25.870	 H	1	UNK0	0.000	
16	  C1	5.650	8.640	22.740	C.3	1	UNK0	0.000	
17	  O1	5.740	10.120	22.700	O.3	1	UNK0	0.000	
18	  C2	6.920	8.150	23.480	C.3	1	UNK0	0.000	
19	  O2	7.300	6.800	23.160	O.3	1	UNK0	0.000	
20	  C3	7.990	9.260	23.200	C.3	1	UNK0	0.000	
21	  O3	8.990	8.900	22.230	O.3	1	UNK0	0.000	
22	  C4	7.160	10.490	22.690	C.3	1	UNK0	0.000	
23	  N1	7.410	11.710	23.470	N.pl3	1	UNK0	0.000	
24	  C5	8.820	12.180	23.780	C.2	1	UNK0	0.000	
25	  N2	8.760	13.480	24.330	N.2	1	UNK0	0.000	
26	  C6	7.220	13.910	24.400	C.2	1	UNK0	0.000	
27	  C7	6.470	15.040	24.810	C.2	1	UNK0	0.000	
28	  N3	7.010	16.200	25.340	N.pl3	1	UNK0	0.000	
29	  N4	5.130	15.060	24.690	N.2	1	UNK0	0.000	
30	  C8	4.510	13.960	24.180	C.2	1	UNK0	0.000	
31	  N5	5.050	12.790	23.740	N.2	1	UNK0	0.000	
32	  C9	6.400	12.770	23.860	C.2	1	UNK0	0.000	
33	 C10	4.350	8.160	23.410	C.3	1	UNK0	0.000	
34	  O4	4.310	8.600	24.780	O.3	1	UNK0	0.000	
35	  P1	3.180	9.660	25.260	P.3	1	UNK0	0.000	
36	  O5	3.470	10.370	26.540	O.co2	1	UNK0	0.000	
37	  O6	3.140	10.670	24.050	O.3	1	UNK0	0.000	
38	  O7	1.770	8.980	25.120	O.3	1	UNK0	0.000	
39	  P2	1.530	7.860	26.160	P.3	1	UNK0	0.000	
40	  O8	1.980	6.570	25.390	O.3	1	UNK0	0.000	
41	  O9	-0.040	7.700	26.070	O.3	1	UNK0	0.000	
42	 O10	2.010	7.980	27.580	O.co2	1	UNK0	0.000	
@<TRIPOS>BOND
1 6 16 1
2 16 17 1
3 16 18 1
4 16 33 1
5 17 22 1
6 12 18 1
7 18 19 1
8 18 20 1
9 10 19 1
10 14 20 1
11 20 21 1
12 20 22 1
13 9 21 1
14 1 22 1
15 22 23 1
16 23 24 1
17 23 32 1
18 2 24 1
19 24 25 2
20 25 26 1
21 26 27 2
22 26 32 1
23 27 28 1
24 27 29 1
25 5 28 1
26 15 28 1
27 29 30 2
28 11 30 1
29 30 31 1
30 31 32 2
31 3 33 1
32 4 33 1
33 33 34 1
34 34 35 1
35 35 36 2
36 35 37 1
37 35 38 1
38 13 37 1
39 38 39 1
40 39 40 1
41 39 41 1
42 39 42 2
43 7 40 1
44 8 41 1
@<TRIPOS>SUBSTRUCTURE
1	UNK0	1	GROUP	1 ****	UNK
