# created with PyMOL 2.5.0
@<TRIPOS>MOLECULE
MOL
27 29 1                 
SMALL
USER_CHARGES
@<TRIPOS>ATOM
1	  C1	5.898	11.641	18.806	C.3	1	UNK0	0.000	
2	  O1	5.935	13.048	18.339	O.3	1	UNK0	0.000	
3	  C2	6.158	11.614	20.342	C.3	1	UNK0	0.000	
4	  O2	7.413	10.969	20.610	O.3	1	UNK0	0.000	
5	  C3	6.188	13.120	20.755	C.3	1	UNK0	0.000	
6	  O3	7.075	13.435	21.832	O.3	1	UNK0	0.000	
7	  C4	6.543	13.842	19.420	C.3	1	UNK0	0.000	
8	  N1	6.093	15.219	19.362	N.pl3	1	UNK0	0.000	
9	  C5	7.047	16.391	19.267	C.2	1	UNK0	0.000	
10	  N2	6.304	17.600	19.416	N.2	1	UNK0	0.000	
11	  C6	4.753	17.193	19.592	C.2	1	UNK0	0.000	
12	  C7	3.523	17.858	19.756	C.2	1	UNK0	0.000	
13	  N3	3.360	19.230	19.789	N.pl3	1	UNK0	0.000	
14	  N4	2.374	17.159	19.853	N.2	1	UNK0	0.000	
15	  C8	2.429	15.799	19.807	C.2	1	UNK0	0.000	
16	  N5	3.522	14.985	19.654	N.2	1	UNK0	0.000	
17	  C9	4.666	15.695	19.549	C.2	1	UNK0	0.000	
18	 C10	4.562	11.007	18.467	C.3	1	UNK0	0.000	
19	  O4	3.540	11.540	19.307	O.3	1	UNK0	0.000	
20	  P1	2.155	11.981	18.614	P.3	1	UNK0	0.000	
21	  O5	1.071	12.498	19.514	O.co2	1	UNK0	0.000	
22	  O6	2.712	13.128	17.685	O.co2	1	UNK0	0.000	
23	  O7	1.834	10.912	17.531	O.3	1	UNK0	0.000	
24	  P2	1.377	9.535	18.095	P.3	1	UNK0	0.000	
25	  O8	1.294	8.751	16.733	O.co2	1	UNK0	0.000	
26	  O9	-0.147	9.741	18.372	O.co2	1	UNK0	0.000	
27	 O10	2.201	8.889	19.155	O.co2	1	UNK0	0.000	
@<TRIPOS>BOND
1 1 2 1
2 1 3 1
3 1 18 1
4 2 7 1
5 3 4 1
6 3 5 1
7 5 6 1
8 5 7 1
9 7 8 1
10 8 9 1
11 8 17 1
12 9 10 2
13 10 11 1
14 11 12 2
15 11 17 1
16 12 13 1
17 12 14 1
18 14 15 2
19 15 16 1
20 16 17 2
21 18 19 1
22 19 20 1
23 20 21 2
24 20 22 1
25 20 23 1
26 23 24 1
27 24 25 1
28 24 26 1
29 24 27 2
@<TRIPOS>SUBSTRUCTURE
1	UNK0	1	GROUP	1 ****	UNK
