# created with PyMOL 2.5.0
@<TRIPOS>MOLECULE
MOL
42 44 1                 
SMALL
USER_CHARGES
@<TRIPOS>ATOM
1	 H06	7.890	13.520	22.860	 H	1	UNK0	0.000	
2	 H07	8.640	14.540	25.430	 H	1	UNK0	0.000	
3	 H11	5.230	9.000	22.830	 H	1	UNK0	0.000	
4	 H12	4.500	10.420	22.020	 H	1	UNK0	0.000	
5	 H09	4.630	17.740	26.570	 H	1	UNK0	0.000	
6	 H01	7.010	10.430	22.010	 H	1	UNK0	0.000	
7	 H14	1.960	5.890	23.750	 H	1	UNK0	0.000	
8	 H15	0.770	7.200	24.790	 H	1	UNK0	0.000	
9	 H05	9.620	10.700	23.780	 H	1	UNK0	0.000	
10	 H03	7.310	8.610	24.410	 H	1	UNK0	0.000	
11	 H10	2.110	14.370	23.660	 H	1	UNK0	0.000	
12	 H02	6.580	10.560	25.040	 H	1	UNK0	0.000	
13	 H13	3.070	12.240	23.530	 H	1	UNK0	0.000	
14	 H04	8.300	12.080	25.310	 H	1	UNK0	0.000	
15	 H08	2.950	17.630	26.200	 H	1	UNK0	0.000	
16	  C1	6.440	10.790	22.850	C.3	1	UNK0	0.000	
17	  O1	6.280	12.240	22.670	O.3	1	UNK0	0.000	
18	  C2	7.230	10.560	24.170	C.3	1	UNK0	0.000	
19	  O2	7.960	9.300	24.160	O.3	1	UNK0	0.000	
20	  C3	8.100	11.830	24.280	C.3	1	UNK0	0.000	
21	  O3	9.420	11.640	23.620	O.3	1	UNK0	0.000	
22	  C4	7.270	12.920	23.530	C.3	1	UNK0	0.000	
23	  N1	6.690	13.840	24.420	N.pl3	1	UNK0	0.000	
24	  C5	7.570	14.660	25.340	C.2	1	UNK0	0.000	
25	  N2	6.770	15.640	26.010	N.2	1	UNK0	0.000	
26	  C6	5.250	15.440	25.510	C.2	1	UNK0	0.000	
27	  C7	4.020	16.070	25.710	C.2	1	UNK0	0.000	
28	  N3	3.790	17.170	26.540	N.pl3	1	UNK0	0.000	
29	  N4	2.930	15.700	25.010	N.2	1	UNK0	0.000	
30	  C8	3.030	14.630	24.170	C.2	1	UNK0	0.000	
31	  N5	4.120	13.870	23.890	N.2	1	UNK0	0.000	
32	  C9	5.230	14.300	24.530	C.2	1	UNK0	0.000	
33	 C10	5.080	10.090	22.900	C.3	1	UNK0	0.000	
34	  O4	4.450	10.390	24.120	O.3	1	UNK0	0.000	
35	  P1	2.840	10.360	24.190	P.3	1	UNK0	0.000	
36	  O5	2.230	10.640	25.510	O.co2	1	UNK0	0.000	
37	  O6	2.570	11.490	23.130	O.3	1	UNK0	0.000	
38	  O7	2.460	9.050	23.400	O.3	1	UNK0	0.000	
39	  P2	2.720	7.770	24.230	P.3	1	UNK0	0.000	
40	  O8	2.260	6.660	23.190	O.3	1	UNK0	0.000	
41	  O9	1.520	7.680	25.250	O.3	1	UNK0	0.000	
42	 O10	4.100	7.530	24.750	O.co2	1	UNK0	0.000	
@<TRIPOS>BOND
1 6 16 1
2 16 17 1
3 16 18 1
4 16 33 1
5 17 22 1
6 12 18 1
7 18 19 1
8 18 20 1
9 10 19 1
10 14 20 1
11 20 21 1
12 20 22 1
13 9 21 1
14 1 22 1
15 22 23 1
16 23 24 1
17 23 32 1
18 2 24 1
19 24 25 2
20 25 26 1
21 26 27 2
22 26 32 1
23 27 28 1
24 27 29 1
25 5 28 1
26 15 28 1
27 29 30 2
28 11 30 1
29 30 31 1
30 31 32 2
31 3 33 1
32 4 33 1
33 33 34 1
34 34 35 1
35 35 36 2
36 35 37 1
37 35 38 1
38 13 37 1
39 38 39 1
40 39 40 1
41 39 41 1
42 39 42 2
43 7 40 1
44 8 41 1
@<TRIPOS>SUBSTRUCTURE
1	UNK0	1	GROUP	1 ****	UNK
