# created with PyMOL 2.5.0
@<TRIPOS>MOLECULE
MOL
42 44 1                 
SMALL
USER_CHARGES
@<TRIPOS>ATOM
1	 H06	4.690	11.170	22.910	 H	1	UNK0	0.000	
2	 H07	7.340	12.360	24.600	 H	1	UNK0	0.000	
3	 H11	2.650	8.210	25.720	 H	1	UNK0	0.000	
4	 H12	4.270	7.720	26.070	 H	1	UNK0	0.000	
5	 H09	3.330	16.820	27.140	 H	1	UNK0	0.000	
6	 H01	3.620	8.380	23.200	 H	1	UNK0	0.000	
7	 H14	4.060	6.480	20.140	 H	1	UNK0	0.000	
8	 H15	1.890	4.450	20.710	 H	1	UNK0	0.000	
9	 H05	7.220	9.410	22.510	 H	1	UNK0	0.000	
10	 H03	5.560	6.970	22.700	 H	1	UNK0	0.000	
11	 H10	0.860	13.410	26.110	 H	1	UNK0	0.000	
12	 H02	6.070	7.910	24.810	 H	1	UNK0	0.000	
13	 H13	0.170	7.150	23.940	 H	1	UNK0	0.000	
14	 H04	6.660	10.120	24.980	 H	1	UNK0	0.000	
15	 H08	4.990	16.500	26.780	 H	1	UNK0	0.000	
16	  C1	4.100	8.630	24.140	C.3	1	UNK0	0.000	
17	  O1	3.800	10.040	24.440	O.3	1	UNK0	0.000	
18	  C2	5.650	8.490	23.980	C.3	1	UNK0	0.000	
19	  O2	6.030	7.840	22.760	O.3	1	UNK0	0.000	
20	  C3	6.180	9.960	24.020	C.3	1	UNK0	0.000	
21	  O3	7.160	10.260	23.010	O.3	1	UNK0	0.000	
22	  C4	4.910	10.860	23.930	C.3	1	UNK0	0.000	
23	  N1	5.050	12.070	24.730	N.pl3	1	UNK0	0.000	
24	  C5	6.390	12.740	24.980	C.2	1	UNK0	0.000	
25	  N2	6.180	13.950	25.720	N.2	1	UNK0	0.000	
26	  C6	4.590	14.060	25.950	C.2	1	UNK0	0.000	
27	  C7	3.710	14.990	26.570	C.2	1	UNK0	0.000	
28	  N3	4.090	16.160	27.150	N.pl3	1	UNK0	0.000	
29	  N4	2.380	14.750	26.580	N.2	1	UNK0	0.000	
30	  C8	1.920	13.600	26.000	C.2	1	UNK0	0.000	
31	  N5	2.600	12.650	25.320	N.2	1	UNK0	0.000	
32	  C9	3.930	12.880	25.330	C.2	1	UNK0	0.000	
33	 C10	3.540	7.760	25.260	C.3	1	UNK0	0.000	
34	  O4	3.290	6.400	24.860	O.3	1	UNK0	0.000	
35	  P1	1.920	6.010	24.080	P.3	1	UNK0	0.000	
36	  O5	1.390	4.620	24.320	O.co2	1	UNK0	0.000	
37	  O6	0.900	7.110	24.590	O.3	1	UNK0	0.000	
38	  O7	2.080	6.480	22.600	O.3	1	UNK0	0.000	
39	  P2	3.150	5.700	21.790	P.3	1	UNK0	0.000	
40	  O8	3.110	6.390	20.380	O.3	1	UNK0	0.000	
41	  O9	2.570	4.280	21.430	O.3	1	UNK0	0.000	
42	 O10	4.550	5.710	22.320	O.co2	1	UNK0	0.000	
@<TRIPOS>BOND
1 6 16 1
2 16 17 1
3 16 18 1
4 16 33 1
5 17 22 1
6 12 18 1
7 18 19 1
8 18 20 1
9 10 19 1
10 14 20 1
11 20 21 1
12 20 22 1
13 9 21 1
14 1 22 1
15 22 23 1
16 23 24 1
17 23 32 1
18 2 24 1
19 24 25 2
20 25 26 1
21 26 27 2
22 26 32 1
23 27 28 1
24 27 29 1
25 5 28 1
26 15 28 1
27 29 30 2
28 11 30 1
29 30 31 1
30 31 32 2
31 3 33 1
32 4 33 1
33 33 34 1
34 34 35 1
35 35 36 2
36 35 37 1
37 35 38 1
38 13 37 1
39 38 39 1
40 39 40 1
41 39 41 1
42 39 42 2
43 7 40 1
44 8 41 1
@<TRIPOS>SUBSTRUCTURE
1	UNK0	1	GROUP	1 ****	UNK
