# created with PyMOL 2.5.0
@<TRIPOS>MOLECULE
MOL
27 29 1                 
SMALL
USER_CHARGES
@<TRIPOS>ATOM
1	  C1	3.110	13.118	16.952	C.3	1	UNK0	0.000	
2	  O1	3.001	14.433	17.590	O.3	1	UNK0	0.000	
3	  C2	4.316	12.360	17.578	C.3	1	UNK0	0.000	
4	  O2	5.184	11.926	16.534	O.3	1	UNK0	0.000	
5	  C3	5.044	13.413	18.478	C.3	1	UNK0	0.000	
6	  O3	4.899	13.056	19.873	O.3	1	UNK0	0.000	
7	  C4	4.337	14.762	18.093	C.3	1	UNK0	0.000	
8	  N1	4.314	15.817	19.107	N.pl3	1	UNK0	0.000	
9	  C5	5.537	16.062	19.977	C.2	1	UNK0	0.000	
10	  N2	5.561	17.455	20.340	N.2	1	UNK0	0.000	
11	  C6	4.247	18.130	19.699	C.2	1	UNK0	0.000	
12	  C7	3.712	19.430	19.562	C.2	1	UNK0	0.000	
13	  N3	4.323	20.597	19.985	N.pl3	1	UNK0	0.000	
14	  N4	2.548	19.639	18.927	N.2	1	UNK0	0.000	
15	  C8	1.924	18.570	18.344	C.2	1	UNK0	0.000	
16	  N5	2.345	17.276	18.278	N.2	1	UNK0	0.000	
17	  C9	3.479	17.070	18.970	C.2	1	UNK0	0.000	
18	 C10	1.816	12.323	17.080	C.3	1	UNK0	0.000	
19	  O4	1.519	12.053	18.451	O.3	1	UNK0	0.000	
20	  P1	0.027	12.407	18.987	P.3	1	UNK0	0.000	
21	  O5	-0.257	12.161	20.431	O.co2	1	UNK0	0.000	
22	  O6	-0.046	13.936	18.681	O.co2	1	UNK0	0.000	
23	  O7	-1.009	11.859	17.948	O.3	1	UNK0	0.000	
24	  P2	-1.029	10.316	17.829	P.3	1	UNK0	0.000	
25	  O8	-0.072	10.071	16.580	O.co2	1	UNK0	0.000	
26	  O9	-2.364	10.105	17.051	O.co2	1	UNK0	0.000	
27	 O10	-0.790	9.433	18.998	O.co2	1	UNK0	0.000	
@<TRIPOS>BOND
1 1 2 1
2 1 3 1
3 1 18 1
4 2 7 1
5 3 4 1
6 3 5 1
7 5 6 1
8 5 7 1
9 7 8 1
10 8 9 1
11 8 17 1
12 9 10 2
13 10 11 1
14 11 12 2
15 11 17 1
16 12 13 1
17 12 14 1
18 14 15 2
19 15 16 1
20 16 17 2
21 18 19 1
22 19 20 1
23 20 21 2
24 20 22 1
25 20 23 1
26 23 24 1
27 24 25 1
28 24 26 1
29 24 27 2
@<TRIPOS>SUBSTRUCTURE
1	UNK0	1	GROUP	1 ****	UNK
