# created with PyMOL 2.5.0
@<TRIPOS>MOLECULE
MOL
42 44 1                 
SMALL
USER_CHARGES
@<TRIPOS>ATOM
1	 H06	8.100	11.430	23.180	 H	1	UNK0	0.000	
2	 H07	8.100	13.850	23.800	 H	1	UNK0	0.000	
3	 H11	5.780	7.080	22.440	 H	1	UNK0	0.000	
4	 H12	4.750	8.460	22.000	 H	1	UNK0	0.000	
5	 H09	4.190	15.640	26.900	 H	1	UNK0	0.000	
6	 H01	7.150	8.910	21.700	 H	1	UNK0	0.000	
7	 H14	1.670	4.620	21.980	 H	1	UNK0	0.000	
8	 H15	1.260	4.660	23.790	 H	1	UNK0	0.000	
9	 H05	9.540	9.370	25.210	 H	1	UNK0	0.000	
10	 H03	8.960	7.460	22.860	 H	1	UNK0	0.000	
11	 H10	3.020	10.650	26.900	 H	1	UNK0	0.000	
12	 H02	7.430	7.750	24.380	 H	1	UNK0	0.000	
13	 H13	3.680	10.180	24.420	 H	1	UNK0	0.000	
14	 H04	6.990	9.780	25.510	 H	1	UNK0	0.000	
15	 H08	3.050	14.770	27.850	 H	1	UNK0	0.000	
16	  C1	6.700	9.000	22.680	C.3	1	UNK0	0.000	
17	  O1	6.300	10.420	22.830	O.3	1	UNK0	0.000	
18	  C2	7.710	8.640	23.810	C.3	1	UNK0	0.000	
19	  O2	9.000	8.370	23.240	O.3	1	UNK0	0.000	
20	  C3	7.740	9.910	24.720	C.3	1	UNK0	0.000	
21	  O3	9.000	10.180	25.340	O.3	1	UNK0	0.000	
22	  C4	7.260	11.040	23.760	C.3	1	UNK0	0.000	
23	  N1	6.660	12.170	24.440	N.pl3	1	UNK0	0.000	
24	  C5	7.260	13.560	24.410	C.2	1	UNK0	0.000	
25	  N2	6.540	14.390	25.320	N.2	1	UNK0	0.000	
26	  C6	5.370	13.490	25.970	C.2	1	UNK0	0.000	
27	  C7	4.320	13.670	26.890	C.2	1	UNK0	0.000	
28	  N3	4.010	14.860	27.520	N.pl3	1	UNK0	0.000	
29	  N4	3.490	12.650	27.190	N.2	1	UNK0	0.000	
30	  C8	3.700	11.440	26.600	C.2	1	UNK0	0.000	
31	  N5	4.660	11.080	25.690	N.2	1	UNK0	0.000	
32	  C9	5.480	12.110	25.390	C.2	1	UNK0	0.000	
33	 C10	5.480	8.100	22.730	C.3	1	UNK0	0.000	
34	  O4	4.970	8.040	24.060	O.3	1	UNK0	0.000	
35	  P1	3.380	8.200	24.260	P.3	1	UNK0	0.000	
36	  O5	2.850	8.090	25.660	O.co2	1	UNK0	0.000	
37	  O6	3.220	9.670	23.710	O.3	1	UNK0	0.000	
38	  O7	2.700	7.420	23.100	O.3	1	UNK0	0.000	
39	  P2	2.790	5.870	23.220	P.3	1	UNK0	0.000	
40	  O8	2.130	5.500	21.840	O.3	1	UNK0	0.000	
41	  O9	1.610	5.510	24.180	O.3	1	UNK0	0.000	
42	 O10	4.120	5.250	23.480	O.co2	1	UNK0	0.000	
@<TRIPOS>BOND
1 6 16 1
2 16 17 1
3 16 18 1
4 16 33 1
5 17 22 1
6 12 18 1
7 18 19 1
8 18 20 1
9 10 19 1
10 14 20 1
11 20 21 1
12 20 22 1
13 9 21 1
14 1 22 1
15 22 23 1
16 23 24 1
17 23 32 1
18 2 24 1
19 24 25 2
20 25 26 1
21 26 27 2
22 26 32 1
23 27 28 1
24 27 29 1
25 5 28 1
26 15 28 1
27 29 30 2
28 11 30 1
29 30 31 1
30 31 32 2
31 3 33 1
32 4 33 1
33 33 34 1
34 34 35 1
35 35 36 2
36 35 37 1
37 35 38 1
38 13 37 1
39 38 39 1
40 39 40 1
41 39 41 1
42 39 42 2
43 7 40 1
44 8 41 1
@<TRIPOS>SUBSTRUCTURE
1	UNK0	1	GROUP	1 ****	UNK
