# created with PyMOL 2.5.0
@<TRIPOS>MOLECULE
MOL
27 29 1                 
SMALL
USER_CHARGES
@<TRIPOS>ATOM
1	  C1	3.968	11.377	18.223	C.3	1	UNK0	0.000	
2	  O1	5.219	12.172	18.324	O.3	1	UNK0	0.000	
3	  C2	3.732	10.657	19.581	C.3	1	UNK0	0.000	
4	  O2	4.110	9.268	19.485	O.3	1	UNK0	0.000	
5	  C3	4.670	11.403	20.586	C.3	1	UNK0	0.000	
6	  O3	5.175	10.568	21.646	O.3	1	UNK0	0.000	
7	  C4	5.780	11.980	19.665	C.3	1	UNK0	0.000	
8	  N1	6.387	13.235	20.119	N.pl3	1	UNK0	0.000	
9	  C5	7.861	13.539	19.958	C.2	1	UNK0	0.000	
10	  N2	8.103	14.889	20.364	N.2	1	UNK0	0.000	
11	  C6	6.687	15.511	20.812	C.2	1	UNK0	0.000	
12	  C7	6.179	16.772	21.218	C.2	1	UNK0	0.000	
13	  N3	6.885	17.959	21.211	N.pl3	1	UNK0	0.000	
14	  N4	4.874	16.934	21.472	N.2	1	UNK0	0.000	
15	  C8	4.035	15.869	21.317	C.2	1	UNK0	0.000	
16	  N5	4.336	14.613	20.899	N.2	1	UNK0	0.000	
17	  C9	5.642	14.444	20.661	C.2	1	UNK0	0.000	
18	 C10	2.809	12.288	17.857	C.3	1	UNK0	0.000	
19	  O4	2.499	13.172	18.949	O.3	1	UNK0	0.000	
20	  P1	1.372	14.309	18.720	P.3	1	UNK0	0.000	
21	  O5	1.300	15.427	19.704	O.co2	1	UNK0	0.000	
22	  O6	1.717	14.851	17.274	O.co2	1	UNK0	0.000	
23	  O7	0.033	13.554	18.410	O.3	1	UNK0	0.000	
24	  P2	-0.601	12.904	19.674	P.3	1	UNK0	0.000	
25	  O8	0.140	11.536	19.872	O.co2	1	UNK0	0.000	
26	  O9	-1.971	12.396	19.103	O.co2	1	UNK0	0.000	
27	 O10	-0.839	13.721	20.904	O.co2	1	UNK0	0.000	
@<TRIPOS>BOND
1 1 2 1
2 1 3 1
3 1 18 1
4 2 7 1
5 3 4 1
6 3 5 1
7 5 6 1
8 5 7 1
9 7 8 1
10 8 9 1
11 8 17 1
12 9 10 2
13 10 11 1
14 11 12 2
15 11 17 1
16 12 13 1
17 12 14 1
18 14 15 2
19 15 16 1
20 16 17 2
21 18 19 1
22 19 20 1
23 20 21 2
24 20 22 1
25 20 23 1
26 23 24 1
27 24 25 1
28 24 26 1
29 24 27 2
@<TRIPOS>SUBSTRUCTURE
1	UNK0	1	GROUP	1 ****	UNK
