# created with PyMOL 2.5.0
@<TRIPOS>MOLECULE
MOL
42 44 1                 
SMALL
USER_CHARGES
@<TRIPOS>ATOM
1	 H06	7.780	9.080	21.900	 H	1	UNK0	0.000	
2	 H07	9.270	11.080	21.530	 H	1	UNK0	0.000	
3	 H11	2.760	8.730	22.700	 H	1	UNK0	0.000	
4	 H12	3.310	10.320	22.090	 H	1	UNK0	0.000	
5	 H09	8.240	15.280	24.660	 H	1	UNK0	0.000	
6	 H01	4.570	8.430	21.110	 H	1	UNK0	0.000	
7	 H14	2.010	7.160	24.460	 H	1	UNK0	0.000	
8	 H15	-0.050	7.870	25.040	 H	1	UNK0	0.000	
9	 H05	7.410	6.610	23.660	 H	1	UNK0	0.000	
10	 H03	5.990	6.900	21.310	 H	1	UNK0	0.000	
11	 H10	5.360	11.980	26.960	 H	1	UNK0	0.000	
12	 H02	4.730	7.370	23.770	 H	1	UNK0	0.000	
13	 H13	1.510	12.250	24.200	 H	1	UNK0	0.000	
14	 H04	6.370	8.850	24.600	 H	1	UNK0	0.000	
15	 H08	7.560	15.270	26.200	 H	1	UNK0	0.000	
16	  C1	4.830	8.830	22.100	C.3	1	UNK0	0.000	
17	  O1	5.860	9.880	21.890	O.3	1	UNK0	0.000	
18	  C2	5.430	7.730	23.020	C.3	1	UNK0	0.000	
19	  O2	5.820	6.580	22.240	O.3	1	UNK0	0.000	
20	  C3	6.690	8.400	23.660	C.3	1	UNK0	0.000	
21	  O3	7.760	7.480	23.950	O.3	1	UNK0	0.000	
22	  C4	7.070	9.490	22.620	C.3	1	UNK0	0.000	
23	  N1	7.710	10.690	23.170	N.pl3	1	UNK0	0.000	
24	  C5	8.830	11.420	22.460	C.2	1	UNK0	0.000	
25	  N2	9.130	12.620	23.180	N.2	1	UNK0	0.000	
26	  C6	8.130	12.680	24.440	C.2	1	UNK0	0.000	
27	  C7	7.810	13.590	25.480	C.2	1	UNK0	0.000	
28	  N3	8.290	14.880	25.590	N.pl3	1	UNK0	0.000	
29	  N4	6.840	13.310	26.360	N.2	1	UNK0	0.000	
30	  C8	6.150	12.140	26.230	C.2	1	UNK0	0.000	
31	  N5	6.290	11.180	25.280	N.2	1	UNK0	0.000	
32	  C9	7.270	11.450	24.410	C.2	1	UNK0	0.000	
33	 C10	3.580	9.450	22.700	C.3	1	UNK0	0.000	
34	  O4	3.830	9.880	24.050	O.3	1	UNK0	0.000	
35	  P1	2.660	10.680	24.830	P.3	1	UNK0	0.000	
36	  O5	3.030	11.420	26.070	O.co2	1	UNK0	0.000	
37	  O6	2.120	11.670	23.720	O.3	1	UNK0	0.000	
38	  O7	1.440	9.700	24.930	O.3	1	UNK0	0.000	
39	  P2	1.650	8.580	25.990	P.3	1	UNK0	0.000	
40	  O8	2.500	7.470	25.280	O.3	1	UNK0	0.000	
41	  O9	0.240	7.890	25.990	O.3	1	UNK0	0.000	
42	 O10	2.040	8.930	27.390	O.co2	1	UNK0	0.000	
@<TRIPOS>BOND
1 6 16 1
2 16 17 1
3 16 18 1
4 16 33 1
5 17 22 1
6 12 18 1
7 18 19 1
8 18 20 1
9 10 19 1
10 14 20 1
11 20 21 1
12 20 22 1
13 9 21 1
14 1 22 1
15 22 23 1
16 23 24 1
17 23 32 1
18 2 24 1
19 24 25 2
20 25 26 1
21 26 27 2
22 26 32 1
23 27 28 1
24 27 29 1
25 5 28 1
26 15 28 1
27 29 30 2
28 11 30 1
29 30 31 1
30 31 32 2
31 3 33 1
32 4 33 1
33 33 34 1
34 34 35 1
35 35 36 2
36 35 37 1
37 35 38 1
38 13 37 1
39 38 39 1
40 39 40 1
41 39 41 1
42 39 42 2
43 7 40 1
44 8 41 1
@<TRIPOS>SUBSTRUCTURE
1	UNK0	1	GROUP	1 ****	UNK
