# created with PyMOL 2.5.0
@<TRIPOS>MOLECULE
MOL
27 29 1                 
SMALL
USER_CHARGES
@<TRIPOS>ATOM
1	  C1	2.327	12.697	17.386	C.3	1	UNK0	0.000	
2	  O1	2.507	14.146	17.197	O.3	1	UNK0	0.000	
3	  C2	3.522	12.170	18.247	C.3	1	UNK0	0.000	
4	  O2	4.185	11.046	17.653	O.3	1	UNK0	0.000	
5	  C3	4.488	13.393	18.362	C.3	1	UNK0	0.000	
6	  O3	5.874	13.072	18.145	O.3	1	UNK0	0.000	
7	  C4	3.938	14.451	17.358	C.3	1	UNK0	0.000	
8	  N1	4.109	15.809	17.858	N.pl3	1	UNK0	0.000	
9	  C5	5.256	16.211	18.769	C.2	1	UNK0	0.000	
10	  N2	5.195	17.624	19.007	N.2	1	UNK0	0.000	
11	  C6	3.921	18.159	18.180	C.2	1	UNK0	0.000	
12	  C7	3.306	19.422	17.957	C.2	1	UNK0	0.000	
13	  N3	3.757	20.609	18.444	N.pl3	1	UNK0	0.000	
14	  N4	2.203	19.502	17.181	N.2	1	UNK0	0.000	
15	  C8	1.699	18.351	16.641	C.2	1	UNK0	0.000	
16	  N5	2.187	17.091	16.697	N.2	1	UNK0	0.000	
17	  C9	3.276	17.009	17.491	C.2	1	UNK0	0.000	
18	 C10	0.972	12.453	18.043	C.3	1	UNK0	0.000	
19	  O4	0.449	11.133	17.806	O.3	1	UNK0	0.000	
20	  P1	-0.332	10.793	16.424	P.3	1	UNK0	0.000	
21	  O5	-1.412	9.746	16.509	O.co2	1	UNK0	0.000	
22	  O6	-0.927	12.199	16.001	O.co2	1	UNK0	0.000	
23	  O7	0.749	10.631	15.309	O.3	1	UNK0	0.000	
24	  P2	1.666	9.390	15.479	P.3	1	UNK0	0.000	
25	  O8	2.648	9.496	14.258	O.co2	1	UNK0	0.000	
26	  O9	0.850	8.104	15.079	O.co2	1	UNK0	0.000	
27	 O10	2.449	9.288	16.751	O.co2	1	UNK0	0.000	
@<TRIPOS>BOND
1 1 2 1
2 1 3 1
3 1 18 1
4 2 7 1
5 3 4 1
6 3 5 1
7 5 6 1
8 5 7 1
9 7 8 1
10 8 9 1
11 8 17 1
12 9 10 2
13 10 11 1
14 11 12 2
15 11 17 1
16 12 13 1
17 12 14 1
18 14 15 2
19 15 16 1
20 16 17 2
21 18 19 1
22 19 20 1
23 20 21 2
24 20 22 1
25 20 23 1
26 23 24 1
27 24 25 1
28 24 26 1
29 24 27 2
@<TRIPOS>SUBSTRUCTURE
1	UNK0	1	GROUP	1 ****	UNK
