# created with PyMOL 2.5.0
@<TRIPOS>MOLECULE
MOL
42 44 1                 
SMALL
USER_CHARGES
@<TRIPOS>ATOM
1	 H06	6.870	11.580	21.940	 H	1	UNK0	0.000	
2	 H07	8.700	12.680	24.300	 H	1	UNK0	0.000	
3	 H11	5.480	7.650	25.000	 H	1	UNK0	0.000	
4	 H12	4.500	7.270	23.650	 H	1	UNK0	0.000	
5	 H09	5.670	16.540	26.070	 H	1	UNK0	0.000	
6	 H01	6.050	8.270	22.380	 H	1	UNK0	0.000	
7	 H14	0.700	5.080	22.160	 H	1	UNK0	0.000	
8	 H15	-0.400	7.450	23.400	 H	1	UNK0	0.000	
9	 H05	7.970	9.770	21.320	 H	1	UNK0	0.000	
10	 H03	8.320	7.580	23.040	 H	1	UNK0	0.000	
11	 H10	2.080	13.310	24.170	 H	1	UNK0	0.000	
12	 H02	7.160	9.280	25.000	 H	1	UNK0	0.000	
13	 H13	2.940	11.000	23.480	 H	1	UNK0	0.000	
14	 H04	8.710	10.660	23.890	 H	1	UNK0	0.000	
15	 H08	3.950	16.690	26.060	 H	1	UNK0	0.000	
16	  C1	5.920	8.870	23.280	C.3	1	UNK0	0.000	
17	  O1	5.550	10.240	22.860	O.3	1	UNK0	0.000	
18	  C2	7.300	8.980	23.970	C.3	1	UNK0	0.000	
19	  O2	8.060	7.760	23.970	O.3	1	UNK0	0.000	
20	  C3	7.960	10.190	23.260	C.3	1	UNK0	0.000	
21	  O3	8.620	9.800	22.040	O.3	1	UNK0	0.000	
22	  C4	6.730	11.110	22.920	C.3	1	UNK0	0.000	
23	  N1	6.540	12.220	23.850	N.pl3	1	UNK0	0.000	
24	  C5	7.680	12.980	24.400	C.2	1	UNK0	0.000	
25	  N2	7.250	14.130	25.130	N.2	1	UNK0	0.000	
26	  C6	5.670	14.130	25.020	C.2	1	UNK0	0.000	
27	  C7	4.620	14.950	25.450	C.2	1	UNK0	0.000	
28	  N3	4.760	16.100	26.210	N.pl3	1	UNK0	0.000	
29	  N4	3.350	14.650	25.100	N.2	1	UNK0	0.000	
30	  C8	3.120	13.510	24.390	C.2	1	UNK0	0.000	
31	  N5	4.010	12.600	23.900	N.2	1	UNK0	0.000	
32	  C9	5.280	12.920	24.210	C.2	1	UNK0	0.000	
33	 C10	4.920	8.120	24.180	C.3	1	UNK0	0.000	
34	  O4	3.920	8.920	24.800	O.3	1	UNK0	0.000	
35	  P1	2.460	9.090	24.110	P.3	1	UNK0	0.000	
36	  O5	1.340	9.550	24.990	O.co2	1	UNK0	0.000	
37	  O6	2.750	10.170	23.000	O.3	1	UNK0	0.000	
38	  O7	2.230	7.870	23.180	O.3	1	UNK0	0.000	
39	  P2	1.490	6.590	23.650	P.3	1	UNK0	0.000	
40	  O8	1.110	5.990	22.250	O.3	1	UNK0	0.000	
41	  O9	0.080	7.070	24.160	O.3	1	UNK0	0.000	
42	 O10	2.240	5.690	24.580	O.co2	1	UNK0	0.000	
@<TRIPOS>BOND
1 6 16 1
2 16 17 1
3 16 18 1
4 16 33 1
5 17 22 1
6 12 18 1
7 18 19 1
8 18 20 1
9 10 19 1
10 14 20 1
11 20 21 1
12 20 22 1
13 9 21 1
14 1 22 1
15 22 23 1
16 23 24 1
17 23 32 1
18 2 24 1
19 24 25 2
20 25 26 1
21 26 27 2
22 26 32 1
23 27 28 1
24 27 29 1
25 5 28 1
26 15 28 1
27 29 30 2
28 11 30 1
29 30 31 1
30 31 32 2
31 3 33 1
32 4 33 1
33 33 34 1
34 34 35 1
35 35 36 2
36 35 37 1
37 35 38 1
38 13 37 1
39 38 39 1
40 39 40 1
41 39 41 1
42 39 42 2
43 7 40 1
44 8 41 1
@<TRIPOS>SUBSTRUCTURE
1	UNK0	1	GROUP	1 ****	UNK
