# created with PyMOL 2.5.0
@<TRIPOS>MOLECULE
MOL
27 29 1                 
SMALL
USER_CHARGES
@<TRIPOS>ATOM
1	  C1	7.668	12.636	20.367	C.3	1	UNK0	0.000	
2	  O1	8.059	13.620	19.342	O.3	1	UNK0	0.000	
3	  C2	7.958	13.304	21.741	C.3	1	UNK0	0.000	
4	  O2	8.090	12.384	22.832	O.3	1	UNK0	0.000	
5	  C3	9.214	14.163	21.435	C.3	1	UNK0	0.000	
6	  O3	10.407	13.343	21.481	O.3	1	UNK0	0.000	
7	  C4	8.941	14.617	19.959	C.3	1	UNK0	0.000	
8	  N1	8.307	15.933	19.975	N.pl3	1	UNK0	0.000	
9	  C5	8.956	17.107	20.677	C.2	1	UNK0	0.000	
10	  N2	8.150	18.273	20.463	N.2	1	UNK0	0.000	
11	  C6	6.853	17.800	19.622	C.2	1	UNK0	0.000	
12	  C7	5.670	18.390	19.121	C.2	1	UNK0	0.000	
13	  N3	5.308	19.711	19.266	N.pl3	1	UNK0	0.000	
14	  N4	4.768	17.658	18.447	N.2	1	UNK0	0.000	
15	  C8	5.007	16.329	18.261	C.2	1	UNK0	0.000	
16	  N5	6.106	15.603	18.638	N.2	1	UNK0	0.000	
17	  C9	6.996	16.341	19.328	C.2	1	UNK0	0.000	
18	 C10	6.185	12.266	20.295	C.3	1	UNK0	0.000	
19	  O4	5.920	11.596	19.054	O.3	1	UNK0	0.000	
20	  P1	4.822	12.271	18.081	P.3	1	UNK0	0.000	
21	  O5	3.888	13.245	18.734	O.co2	1	UNK0	0.000	
22	  O6	5.790	13.041	17.080	O.co2	1	UNK0	0.000	
23	  O7	4.228	11.124	17.198	O.3	1	UNK0	0.000	
24	  P2	3.262	10.219	18.030	P.3	1	UNK0	0.000	
25	  O8	2.959	9.031	17.039	O.co2	1	UNK0	0.000	
26	  O9	1.868	10.965	17.960	O.co2	1	UNK0	0.000	
27	 O10	3.666	9.783	19.405	O.co2	1	UNK0	0.000	
@<TRIPOS>BOND
1 1 2 1
2 1 3 1
3 1 18 1
4 2 7 1
5 3 4 1
6 3 5 1
7 5 6 1
8 5 7 1
9 7 8 1
10 8 9 1
11 8 17 1
12 9 10 2
13 10 11 1
14 11 12 2
15 11 17 1
16 12 13 1
17 12 14 1
18 14 15 2
19 15 16 1
20 16 17 2
21 18 19 1
22 19 20 1
23 20 21 2
24 20 22 1
25 20 23 1
26 23 24 1
27 24 25 1
28 24 26 1
29 24 27 2
@<TRIPOS>SUBSTRUCTURE
1	UNK0	1	GROUP	1 ****	UNK
