# created with PyMOL 2.5.0
@<TRIPOS>MOLECULE
MOL
42 44 1                 
SMALL
USER_CHARGES
@<TRIPOS>ATOM
1	 H06	7.950	11.750	22.800	 H	1	UNK0	0.000	
2	 H07	9.930	12.020	25.320	 H	1	UNK0	0.000	
3	 H11	5.040	7.730	22.750	 H	1	UNK0	0.000	
4	 H12	4.180	9.290	22.810	 H	1	UNK0	0.000	
5	 H09	8.060	16.570	27.100	 H	1	UNK0	0.000	
6	 H01	6.510	9.460	22.000	 H	1	UNK0	0.000	
7	 H14	0.810	4.720	22.870	 H	1	UNK0	0.000	
8	 H15	-0.300	6.420	23.880	 H	1	UNK0	0.000	
9	 H05	9.710	9.010	23.040	 H	1	UNK0	0.000	
10	 H03	7.490	7.090	22.760	 H	1	UNK0	0.000	
11	 H10	3.750	14.710	24.920	 H	1	UNK0	0.000	
12	 H02	7.170	8.410	24.790	 H	1	UNK0	0.000	
13	 H13	1.420	8.910	24.410	 H	1	UNK0	0.000	
14	 H04	8.760	10.010	25.120	 H	1	UNK0	0.000	
15	 H08	6.510	17.280	26.910	 H	1	UNK0	0.000	
16	  C1	6.300	9.430	23.070	C.3	1	UNK0	0.000	
17	  O1	6.220	10.840	23.500	O.3	1	UNK0	0.000	
18	  C2	7.500	8.800	23.820	C.3	1	UNK0	0.000	
19	  O2	8.160	7.730	23.100	O.3	1	UNK0	0.000	
20	  C3	8.450	10.010	24.070	C.3	1	UNK0	0.000	
21	  O3	9.650	9.970	23.280	O.3	1	UNK0	0.000	
22	  C4	7.600	11.280	23.720	C.3	1	UNK0	0.000	
23	  N1	7.720	12.310	24.760	N.pl3	1	UNK0	0.000	
24	  C5	9.040	12.620	25.430	C.2	1	UNK0	0.000	
25	  N2	8.900	13.830	26.170	N.2	1	UNK0	0.000	
26	  C6	7.380	14.330	26.000	C.2	1	UNK0	0.000	
27	  C7	6.590	15.430	26.420	C.2	1	UNK0	0.000	
28	  N3	7.060	16.470	27.200	N.pl3	1	UNK0	0.000	
29	  N4	5.310	15.550	26.010	N.2	1	UNK0	0.000	
30	  C8	4.790	14.580	25.200	C.2	1	UNK0	0.000	
31	  N5	5.410	13.490	24.680	N.2	1	UNK0	0.000	
32	  C9	6.680	13.360	25.090	C.2	1	UNK0	0.000	
33	 C10	4.980	8.700	23.260	C.3	1	UNK0	0.000	
34	  O4	4.720	8.460	24.650	O.3	1	UNK0	0.000	
35	  P1	3.220	7.990	25.030	P.3	1	UNK0	0.000	
36	  O5	2.980	7.670	26.470	O.co2	1	UNK0	0.000	
37	  O6	2.350	9.210	24.470	O.3	1	UNK0	0.000	
38	  O7	2.970	6.890	23.970	O.3	1	UNK0	0.000	
39	  P2	1.740	5.970	24.210	P.3	1	UNK0	0.000	
40	  O8	1.580	5.370	22.770	O.3	1	UNK0	0.000	
41	  O9	0.480	6.950	24.200	O.3	1	UNK0	0.000	
42	 O10	1.810	4.950	25.300	O.co2	1	UNK0	0.000	
@<TRIPOS>BOND
1 6 16 1
2 16 17 1
3 16 18 1
4 16 33 1
5 17 22 1
6 12 18 1
7 18 19 1
8 18 20 1
9 10 19 1
10 14 20 1
11 20 21 1
12 20 22 1
13 9 21 1
14 1 22 1
15 22 23 1
16 23 24 1
17 23 32 1
18 2 24 1
19 24 25 2
20 25 26 1
21 26 27 2
22 26 32 1
23 27 28 1
24 27 29 1
25 5 28 1
26 15 28 1
27 29 30 2
28 11 30 1
29 30 31 1
30 31 32 2
31 3 33 1
32 4 33 1
33 33 34 1
34 34 35 1
35 35 36 2
36 35 37 1
37 35 38 1
38 13 37 1
39 38 39 1
40 39 40 1
41 39 41 1
42 39 42 2
43 7 40 1
44 8 41 1
@<TRIPOS>SUBSTRUCTURE
1	UNK0	1	GROUP	1 ****	UNK
