# created with PyMOL 2.5.0
@<TRIPOS>MOLECULE
MOL
27 29 1                 
SMALL
USER_CHARGES
@<TRIPOS>ATOM
1	  C1	4.395	11.928	17.656	C.3	1	UNK0	0.000	
2	  O1	4.652	13.381	17.685	O.3	1	UNK0	0.000	
3	  C2	4.439	11.440	19.134	C.3	1	UNK0	0.000	
4	  O2	4.786	10.052	19.274	O.3	1	UNK0	0.000	
5	  C3	5.450	12.427	19.809	C.3	1	UNK0	0.000	
6	  O3	6.709	11.837	20.060	O.3	1	UNK0	0.000	
7	  C4	5.586	13.618	18.790	C.3	1	UNK0	0.000	
8	  N1	5.355	14.956	19.392	N.pl3	1	UNK0	0.000	
9	  C5	5.973	15.365	20.716	C.2	1	UNK0	0.000	
10	  N2	5.885	16.787	20.827	N.2	1	UNK0	0.000	
11	  C6	5.089	17.330	19.546	C.2	1	UNK0	0.000	
12	  C7	4.654	18.585	19.035	C.2	1	UNK0	0.000	
13	  N3	4.845	19.786	19.663	N.pl3	1	UNK0	0.000	
14	  N4	4.031	18.662	17.848	N.2	1	UNK0	0.000	
15	  C8	3.807	17.513	17.145	C.2	1	UNK0	0.000	
16	  N5	4.164	16.237	17.477	N.2	1	UNK0	0.000	
17	  C9	4.786	16.161	18.663	C.2	1	UNK0	0.000	
18	 C10	3.134	11.600	16.899	C.3	1	UNK0	0.000	
19	  O4	2.009	11.392	17.783	O.3	1	UNK0	0.000	
20	  P1	0.680	10.756	17.148	P.3	1	UNK0	0.000	
21	  O5	-0.468	10.483	18.045	O.co2	1	UNK0	0.000	
22	  O6	0.309	11.872	16.076	O.co2	1	UNK0	0.000	
23	  O7	1.119	9.602	16.174	O.3	1	UNK0	0.000	
24	  P2	1.675	8.355	16.940	P.3	1	UNK0	0.000	
25	  O8	2.173	7.475	15.720	O.co2	1	UNK0	0.000	
26	  O9	0.438	7.510	17.329	O.co2	1	UNK0	0.000	
27	 O10	2.737	8.587	17.982	O.co2	1	UNK0	0.000	
@<TRIPOS>BOND
1 1 2 1
2 1 3 1
3 1 18 1
4 2 7 1
5 3 4 1
6 3 5 1
7 5 6 1
8 5 7 1
9 7 8 1
10 8 9 1
11 8 17 1
12 9 10 2
13 10 11 1
14 11 12 2
15 11 17 1
16 12 13 1
17 12 14 1
18 14 15 2
19 15 16 1
20 16 17 2
21 18 19 1
22 19 20 1
23 20 21 2
24 20 22 1
25 20 23 1
26 23 24 1
27 24 25 1
28 24 26 1
29 24 27 2
@<TRIPOS>SUBSTRUCTURE
1	UNK0	1	GROUP	1 ****	UNK
