# created with PyMOL 2.5.0
@<TRIPOS>MOLECULE
MOL
27 29 1                 
SMALL
USER_CHARGES
@<TRIPOS>ATOM
1	  C1	5.948	13.171	18.142	C.3	1	UNK0	0.000	
2	  O1	6.366	14.457	17.566	O.3	1	UNK0	0.000	
3	  C2	5.844	13.352	19.683	C.3	1	UNK0	0.000	
4	  O2	6.040	12.098	20.397	O.3	1	UNK0	0.000	
5	  C3	6.888	14.451	19.975	C.3	1	UNK0	0.000	
6	  O3	8.222	13.864	20.273	O.3	1	UNK0	0.000	
7	  C4	6.942	15.278	18.651	C.3	1	UNK0	0.000	
8	  N1	6.316	16.529	18.790	N.pl3	1	UNK0	0.000	
9	  C5	6.817	17.515	19.824	C.2	1	UNK0	0.000	
10	  N2	6.144	18.766	19.649	N.2	1	UNK0	0.000	
11	  C6	5.111	18.587	18.424	C.2	1	UNK0	0.000	
12	  C7	4.220	19.395	17.716	C.2	1	UNK0	0.000	
13	  N3	3.962	20.745	17.969	N.pl3	1	UNK0	0.000	
14	  N4	3.580	18.931	16.625	N.2	1	UNK0	0.000	
15	  C8	3.748	17.622	16.281	C.2	1	UNK0	0.000	
16	  N5	4.526	16.682	16.876	N.2	1	UNK0	0.000	
17	  C9	5.231	17.176	17.918	C.2	1	UNK0	0.000	
18	 C10	4.609	12.717	17.555	C.3	1	UNK0	0.000	
19	  O4	3.581	13.527	18.069	O.3	1	UNK0	0.000	
20	  P1	2.242	13.728	17.194	P.3	1	UNK0	0.000	
21	  O5	1.173	14.554	17.802	O.co2	1	UNK0	0.000	
22	  O6	2.915	14.406	15.945	O.co2	1	UNK0	0.000	
23	  O7	1.923	12.277	16.668	O.3	1	UNK0	0.000	
24	  P2	1.311	11.376	17.767	P.3	1	UNK0	0.000	
25	  O8	1.116	10.026	16.952	O.co2	1	UNK0	0.000	
26	  O9	-0.197	11.825	17.886	O.co2	1	UNK0	0.000	
27	 O10	2.082	11.176	19.031	O.co2	1	UNK0	0.000	
@<TRIPOS>BOND
1 1 2 1
2 1 3 1
3 1 18 1
4 2 7 1
5 3 4 1
6 3 5 1
7 5 6 1
8 5 7 1
9 7 8 1
10 8 9 1
11 8 17 1
12 9 10 2
13 10 11 1
14 11 12 2
15 11 17 1
16 12 13 1
17 12 14 1
18 14 15 2
19 15 16 1
20 16 17 2
21 18 19 1
22 19 20 1
23 20 21 2
24 20 22 1
25 20 23 1
26 23 24 1
27 24 25 1
28 24 26 1
29 24 27 2
@<TRIPOS>SUBSTRUCTURE
1	UNK0	1	GROUP	1 ****	UNK
