# created with PyMOL 2.5.0
@<TRIPOS>MOLECULE
MOL
27 29 1                 
SMALL
USER_CHARGES
@<TRIPOS>ATOM
1	  C1	4.957	11.838	18.659	C.3	1	UNK0	0.000	
2	  O1	5.113	13.305	18.608	O.3	1	UNK0	0.000	
3	  C2	5.408	11.388	20.071	C.3	1	UNK0	0.000	
4	  O2	5.972	10.055	20.122	O.3	1	UNK0	0.000	
5	  C3	6.442	12.478	20.488	C.3	1	UNK0	0.000	
6	  O3	7.797	12.000	20.521	O.3	1	UNK0	0.000	
7	  C4	6.285	13.622	19.428	C.3	1	UNK0	0.000	
8	  N1	6.204	14.941	20.068	N.pl3	1	UNK0	0.000	
9	  C5	7.075	15.312	21.248	C.2	1	UNK0	0.000	
10	  N2	6.975	16.717	21.462	N.2	1	UNK0	0.000	
11	  C6	5.946	17.302	20.371	C.2	1	UNK0	0.000	
12	  C7	5.424	18.568	20.002	C.2	1	UNK0	0.000	
13	  N3	5.759	19.756	20.623	N.pl3	1	UNK0	0.000	
14	  N4	4.593	18.684	18.945	N.2	1	UNK0	0.000	
15	  C8	4.252	17.555	18.255	C.2	1	UNK0	0.000	
16	  N5	4.683	16.282	18.449	N.2	1	UNK0	0.000	
17	  C9	5.503	16.158	19.503	C.2	1	UNK0	0.000	
18	 C10	3.554	11.400	18.272	C.3	1	UNK0	0.000	
19	  O4	2.610	11.726	19.302	O.3	1	UNK0	0.000	
20	  P1	1.047	11.620	18.904	P.3	1	UNK0	0.000	
21	  O5	0.072	11.889	20.004	O.co2	1	UNK0	0.000	
22	  O6	0.957	12.642	17.677	O.co2	1	UNK0	0.000	
23	  O7	1.008	10.245	18.194	O.3	1	UNK0	0.000	
24	  P2	-0.401	9.639	17.943	P.3	1	UNK0	0.000	
25	  O8	-0.035	8.572	16.854	O.co2	1	UNK0	0.000	
26	  O9	-1.146	10.693	17.003	O.co2	1	UNK0	0.000	
27	 O10	-1.165	9.096	19.108	O.co2	1	UNK0	0.000	
@<TRIPOS>BOND
1 1 2 1
2 1 3 1
3 1 18 1
4 2 7 1
5 3 4 1
6 3 5 1
7 5 6 1
8 5 7 1
9 7 8 1
10 8 9 1
11 8 17 1
12 9 10 2
13 10 11 1
14 11 12 2
15 11 17 1
16 12 13 1
17 12 14 1
18 14 15 2
19 15 16 1
20 16 17 2
21 18 19 1
22 19 20 1
23 20 21 2
24 20 22 1
25 20 23 1
26 23 24 1
27 24 25 1
28 24 26 1
29 24 27 2
@<TRIPOS>SUBSTRUCTURE
1	UNK0	1	GROUP	1 ****	UNK
