# created with PyMOL 2.5.0
@<TRIPOS>MOLECULE
MOL
27 29 1                 
SMALL
USER_CHARGES
@<TRIPOS>ATOM
1	  C1	4.450	12.419	19.137	C.3	1	UNK0	0.000	
2	  O1	4.809	13.586	18.300	O.3	1	UNK0	0.000	
3	  C2	5.268	12.548	20.443	C.3	1	UNK0	0.000	
4	  O2	5.478	11.305	21.134	O.3	1	UNK0	0.000	
5	  C3	6.547	13.299	19.993	C.3	1	UNK0	0.000	
6	  O3	7.545	12.395	19.478	O.3	1	UNK0	0.000	
7	  C4	6.023	14.218	18.829	C.3	1	UNK0	0.000	
8	  N1	5.785	15.604	19.225	N.pl3	1	UNK0	0.000	
9	  C5	6.692	16.318	20.146	C.2	1	UNK0	0.000	
10	  N2	6.370	17.707	20.238	N.2	1	UNK0	0.000	
11	  C6	5.146	17.920	19.256	C.2	1	UNK0	0.000	
12	  C7	4.360	18.997	18.829	C.2	1	UNK0	0.000	
13	  N3	4.485	20.305	19.268	N.pl3	1	UNK0	0.000	
14	  N4	3.403	18.798	17.896	N.2	1	UNK0	0.000	
15	  C8	3.184	17.532	17.444	C.2	1	UNK0	0.000	
16	  N5	3.840	16.376	17.752	N.2	1	UNK0	0.000	
17	  C9	4.823	16.579	18.649	C.2	1	UNK0	0.000	
18	 C10	2.956	12.215	19.448	C.3	1	UNK0	0.000	
19	  O4	2.111	13.333	19.204	O.3	1	UNK0	0.000	
20	  P1	1.322	13.474	17.793	P.3	1	UNK0	0.000	
21	  O5	0.141	14.394	17.761	O.co2	1	UNK0	0.000	
22	  O6	2.453	14.020	16.842	O.co2	1	UNK0	0.000	
23	  O7	1.183	12.055	17.183	O.3	1	UNK0	0.000	
24	  P2	-0.068	11.167	17.412	P.3	1	UNK0	0.000	
25	  O8	0.106	10.171	16.210	O.co2	1	UNK0	0.000	
26	  O9	-1.297	12.017	16.917	O.co2	1	UNK0	0.000	
27	 O10	-0.212	10.555	18.769	O.co2	1	UNK0	0.000	
@<TRIPOS>BOND
1 1 2 1
2 1 3 1
3 1 18 1
4 2 7 1
5 3 4 1
6 3 5 1
7 5 6 1
8 5 7 1
9 7 8 1
10 8 9 1
11 8 17 1
12 9 10 2
13 10 11 1
14 11 12 2
15 11 17 1
16 12 13 1
17 12 14 1
18 14 15 2
19 15 16 1
20 16 17 2
21 18 19 1
22 19 20 1
23 20 21 2
24 20 22 1
25 20 23 1
26 23 24 1
27 24 25 1
28 24 26 1
29 24 27 2
@<TRIPOS>SUBSTRUCTURE
1	UNK0	1	GROUP	1 ****	UNK
