# created with PyMOL 2.5.0
@<TRIPOS>MOLECULE
MOL
42 44 1                 
SMALL
USER_CHARGES
@<TRIPOS>ATOM
1	 H06	4.600	12.640	23.250	 H	1	UNK0	0.000	
2	 H07	7.400	12.580	24.880	 H	1	UNK0	0.000	
3	 H11	2.520	8.290	22.660	 H	1	UNK0	0.000	
4	 H12	1.510	9.310	23.700	 H	1	UNK0	0.000	
5	 H09	5.830	16.650	27.990	 H	1	UNK0	0.000	
6	 H01	2.850	10.660	22.210	 H	1	UNK0	0.000	
7	 H14	0.840	5.550	22.670	 H	1	UNK0	0.000	
8	 H15	-0.810	5.940	23.890	 H	1	UNK0	0.000	
9	 H05	6.840	9.280	24.060	 H	1	UNK0	0.000	
10	 H03	5.540	9.200	20.960	 H	1	UNK0	0.000	
11	 H10	1.260	14.380	27.020	 H	1	UNK0	0.000	
12	 H02	5.020	8.750	22.920	 H	1	UNK0	0.000	
13	 H13	2.330	9.670	27.020	 H	1	UNK0	0.000	
14	 H04	6.450	11.280	22.760	 H	1	UNK0	0.000	
15	 H08	4.220	17.070	28.450	 H	1	UNK0	0.000	
16	  C1	3.350	10.190	23.070	C.3	1	UNK0	0.000	
17	  O1	3.420	11.200	24.130	O.3	1	UNK0	0.000	
18	  C2	4.800	9.790	22.670	C.3	1	UNK0	0.000	
19	  O2	4.950	9.940	21.260	O.3	1	UNK0	0.000	
20	  C3	5.730	10.800	23.420	C.3	1	UNK0	0.000	
21	  O3	6.490	10.110	24.440	O.3	1	UNK0	0.000	
22	  C4	4.720	11.860	23.990	C.3	1	UNK0	0.000	
23	  N1	5.120	12.580	25.200	N.pl3	1	UNK0	0.000	
24	  C5	6.560	13.040	25.370	C.2	1	UNK0	0.000	
25	  N2	6.560	14.230	26.180	N.2	1	UNK0	0.000	
26	  C6	5.030	14.520	26.590	C.2	1	UNK0	0.000	
27	  C7	4.310	15.540	27.250	C.2	1	UNK0	0.000	
28	  N3	4.850	16.720	27.730	N.pl3	1	UNK0	0.000	
29	  N4	2.980	15.460	27.410	N.2	1	UNK0	0.000	
30	  C8	2.320	14.400	26.850	C.2	1	UNK0	0.000	
31	  N5	2.830	13.390	26.090	N.2	1	UNK0	0.000	
32	  C9	4.170	13.450	25.990	C.2	1	UNK0	0.000	
33	 C10	2.530	8.980	23.500	C.3	1	UNK0	0.000	
34	  O4	3.140	8.320	24.610	O.3	1	UNK0	0.000	
35	  P1	2.210	7.990	25.900	P.3	1	UNK0	0.000	
36	  O5	2.870	7.340	27.070	O.co2	1	UNK0	0.000	
37	  O6	1.720	9.420	26.290	O.3	1	UNK0	0.000	
38	  O7	0.870	7.360	25.390	O.3	1	UNK0	0.000	
39	  P2	1.040	5.980	24.710	P.3	1	UNK0	0.000	
40	  O8	1.110	6.380	23.170	O.3	1	UNK0	0.000	
41	  O9	-0.440	5.490	24.680	O.3	1	UNK0	0.000	
42	 O10	2.060	5.000	25.160	O.co2	1	UNK0	0.000	
@<TRIPOS>BOND
1 6 16 1
2 16 17 1
3 16 18 1
4 16 33 1
5 17 22 1
6 12 18 1
7 18 19 1
8 18 20 1
9 10 19 1
10 14 20 1
11 20 21 1
12 20 22 1
13 9 21 1
14 1 22 1
15 22 23 1
16 23 24 1
17 23 32 1
18 2 24 1
19 24 25 2
20 25 26 1
21 26 27 2
22 26 32 1
23 27 28 1
24 27 29 1
25 5 28 1
26 15 28 1
27 29 30 2
28 11 30 1
29 30 31 1
30 31 32 2
31 3 33 1
32 4 33 1
33 33 34 1
34 34 35 1
35 35 36 2
36 35 37 1
37 35 38 1
38 13 37 1
39 38 39 1
40 39 40 1
41 39 41 1
42 39 42 2
43 7 40 1
44 8 41 1
@<TRIPOS>SUBSTRUCTURE
1	UNK0	1	GROUP	1 ****	UNK
