# created with PyMOL 2.5.0
@<TRIPOS>MOLECULE
MOL
42 44 1                 
SMALL
USER_CHARGES
@<TRIPOS>ATOM
1	 H06	7.030	12.000	22.290	 H	1	UNK0	0.000	
2	 H07	8.680	12.330	25.010	 H	1	UNK0	0.000	
3	 H11	3.710	8.560	21.480	 H	1	UNK0	0.000	
4	 H12	3.020	10.020	22.220	 H	1	UNK0	0.000	
5	 H09	6.580	17.020	26.410	 H	1	UNK0	0.000	
6	 H01	5.530	9.800	21.310	 H	1	UNK0	0.000	
7	 H14	1.990	4.940	20.500	 H	1	UNK0	0.000	
8	 H15	1.780	4.230	22.140	 H	1	UNK0	0.000	
9	 H05	8.450	9.070	22.640	 H	1	UNK0	0.000	
10	 H03	6.000	7.240	22.580	 H	1	UNK0	0.000	
11	 H10	2.560	14.980	23.880	 H	1	UNK0	0.000	
12	 H02	5.730	8.830	24.220	 H	1	UNK0	0.000	
13	 H13	0.240	8.280	23.730	 H	1	UNK0	0.000	
14	 H04	7.490	10.210	24.630	 H	1	UNK0	0.000	
15	 H08	4.980	17.600	26.150	 H	1	UNK0	0.000	
16	  C1	5.160	9.810	22.340	C.3	1	UNK0	0.000	
17	  O1	5.160	11.230	22.740	O.3	1	UNK0	0.000	
18	  C2	6.190	9.090	23.260	C.3	1	UNK0	0.000	
19	  O2	6.750	7.900	22.680	O.3	1	UNK0	0.000	
20	  C3	7.240	10.210	23.570	C.3	1	UNK0	0.000	
21	  O3	8.450	10.040	22.860	O.3	1	UNK0	0.000	
22	  C4	6.530	11.550	23.150	C.3	1	UNK0	0.000	
23	  N1	6.530	12.590	24.210	N.pl3	1	UNK0	0.000	
24	  C5	7.770	12.920	25.020	C.2	1	UNK0	0.000	
25	  N2	7.560	14.180	25.660	N.2	1	UNK0	0.000	
26	  C6	6.070	14.660	25.320	C.2	1	UNK0	0.000	
27	  C7	5.230	15.770	25.620	C.2	1	UNK0	0.000	
28	  N3	5.590	16.820	26.420	N.pl3	1	UNK0	0.000	
29	  N4	4.000	15.860	25.090	N.2	1	UNK0	0.000	
30	  C8	3.560	14.860	24.270	C.2	1	UNK0	0.000	
31	  N5	4.230	13.740	23.870	N.2	1	UNK0	0.000	
32	  C9	5.460	13.650	24.400	C.2	1	UNK0	0.000	
33	 C10	3.770	9.230	22.340	C.3	1	UNK0	0.000	
34	  O4	3.490	8.490	23.550	O.3	1	UNK0	0.000	
35	  P1	2.170	7.580	23.570	P.3	1	UNK0	0.000	
36	  O5	1.890	6.770	24.780	O.co2	1	UNK0	0.000	
37	  O6	1.050	8.690	23.360	O.3	1	UNK0	0.000	
38	  O7	2.070	6.850	22.180	O.3	1	UNK0	0.000	
39	  P2	3.160	5.740	22.010	P.3	1	UNK0	0.000	
40	  O8	2.910	5.330	20.500	O.3	1	UNK0	0.000	
41	  O9	2.580	4.470	22.680	O.3	1	UNK0	0.000	
42	 O10	4.590	6.110	22.300	O.co2	1	UNK0	0.000	
@<TRIPOS>BOND
1 6 16 1
2 16 17 1
3 16 18 1
4 16 33 1
5 17 22 1
6 12 18 1
7 18 19 1
8 18 20 1
9 10 19 1
10 14 20 1
11 20 21 1
12 20 22 1
13 9 21 1
14 1 22 1
15 22 23 1
16 23 24 1
17 23 32 1
18 2 24 1
19 24 25 2
20 25 26 1
21 26 27 2
22 26 32 1
23 27 28 1
24 27 29 1
25 5 28 1
26 15 28 1
27 29 30 2
28 11 30 1
29 30 31 1
30 31 32 2
31 3 33 1
32 4 33 1
33 33 34 1
34 34 35 1
35 35 36 2
36 35 37 1
37 35 38 1
38 13 37 1
39 38 39 1
40 39 40 1
41 39 41 1
42 39 42 2
43 7 40 1
44 8 41 1
@<TRIPOS>SUBSTRUCTURE
1	UNK0	1	GROUP	1 ****	UNK
