# created with PyMOL 2.5.0
@<TRIPOS>MOLECULE
MOL
42 44 1                 
SMALL
USER_CHARGES
@<TRIPOS>ATOM
1	 H06	10.010	12.960	22.390	 H	1	UNK0	0.000	
2	 H07	10.780	14.770	24.620	 H	1	UNK0	0.000	
3	 H11	7.540	9.900	24.900	 H	1	UNK0	0.000	
4	 H12	8.460	8.420	24.660	 H	1	UNK0	0.000	
5	 H09	6.160	16.920	26.300	 H	1	UNK0	0.000	
6	 H01	9.750	9.530	22.830	 H	1	UNK0	0.000	
7	 H14	3.120	6.180	22.060	 H	1	UNK0	0.000	
8	 H15	2.690	7.100	23.530	 H	1	UNK0	0.000	
9	 H05	12.250	10.610	23.570	 H	1	UNK0	0.000	
10	 H03	11.510	9.920	25.960	 H	1	UNK0	0.000	
11	 H10	4.450	12.400	24.440	 H	1	UNK0	0.000	
12	 H02	9.540	10.860	25.570	 H	1	UNK0	0.000	
13	 H13	6.120	11.210	22.710	 H	1	UNK0	0.000	
14	 H04	11.220	12.470	24.910	 H	1	UNK0	0.000	
15	 H08	4.610	16.160	26.340	 H	1	UNK0	0.000	
16	  C1	9.210	10.120	23.570	C.3	1	UNK0	0.000	
17	  O1	8.750	11.360	22.920	O.3	1	UNK0	0.000	
18	  C2	10.160	10.560	24.720	C.3	1	UNK0	0.000	
19	  O2	11.060	9.540	25.170	O.3	1	UNK0	0.000	
20	  C3	10.830	11.830	24.130	C.3	1	UNK0	0.000	
21	  O3	11.920	11.460	23.250	O.3	1	UNK0	0.000	
22	  C4	9.660	12.450	23.290	C.3	1	UNK0	0.000	
23	  N1	8.970	13.450	24.100	N.pl3	1	UNK0	0.000	
24	  C5	9.720	14.610	24.720	C.2	1	UNK0	0.000	
25	  N2	8.780	15.460	25.390	N.2	1	UNK0	0.000	
26	  C6	7.330	14.760	25.250	C.2	1	UNK0	0.000	
27	  C7	6.010	15.010	25.690	C.2	1	UNK0	0.000	
28	  N3	5.610	16.080	26.460	N.pl3	1	UNK0	0.000	
29	  N4	5.010	14.170	25.380	N.2	1	UNK0	0.000	
30	  C8	5.290	13.060	24.640	C.2	1	UNK0	0.000	
31	  N5	6.490	12.680	24.100	N.2	1	UNK0	0.000	
32	  C9	7.490	13.520	24.430	C.2	1	UNK0	0.000	
33	 C10	8.060	9.300	24.160	C.3	1	UNK0	0.000	
34	  O4	7.210	8.840	23.100	O.3	1	UNK0	0.000	
35	  P1	5.660	9.290	23.160	P.3	1	UNK0	0.000	
36	  O5	5.170	9.750	24.500	O.co2	1	UNK0	0.000	
37	  O6	5.700	10.520	22.150	O.3	1	UNK0	0.000	
38	  O7	4.840	8.210	22.380	O.3	1	UNK0	0.000	
39	  P2	4.720	6.890	23.210	P.3	1	UNK0	0.000	
40	  O8	4.070	5.890	22.180	O.3	1	UNK0	0.000	
41	  O9	3.470	7.130	24.150	O.3	1	UNK0	0.000	
42	 O10	5.930	6.350	23.910	O.co2	1	UNK0	0.000	
@<TRIPOS>BOND
1 6 16 1
2 16 17 1
3 16 18 1
4 16 33 1
5 17 22 1
6 12 18 1
7 18 19 1
8 18 20 1
9 10 19 1
10 14 20 1
11 20 21 1
12 20 22 1
13 9 21 1
14 1 22 1
15 22 23 1
16 23 24 1
17 23 32 1
18 2 24 1
19 24 25 2
20 25 26 1
21 26 27 2
22 26 32 1
23 27 28 1
24 27 29 1
25 5 28 1
26 15 28 1
27 29 30 2
28 11 30 1
29 30 31 1
30 31 32 2
31 3 33 1
32 4 33 1
33 33 34 1
34 34 35 1
35 35 36 2
36 35 37 1
37 35 38 1
38 13 37 1
39 38 39 1
40 39 40 1
41 39 41 1
42 39 42 2
43 7 40 1
44 8 41 1
@<TRIPOS>SUBSTRUCTURE
1	UNK0	1	GROUP	1 ****	UNK
