# created with PyMOL 2.5.0
@<TRIPOS>MOLECULE
MOL
27 29 1                 
SMALL
USER_CHARGES
@<TRIPOS>ATOM
1	  C1	3.980	11.213	18.364	C.3	1	UNK0	0.000	
2	  O1	4.487	12.534	17.922	O.3	1	UNK0	0.000	
3	  C2	4.502	11.012	19.810	C.3	1	UNK0	0.000	
4	  O2	4.597	9.635	20.212	O.3	1	UNK0	0.000	
5	  C3	5.826	11.849	19.868	C.3	1	UNK0	0.000	
6	  O3	7.033	11.067	19.828	O.3	1	UNK0	0.000	
7	  C4	5.752	12.794	18.618	C.3	1	UNK0	0.000	
8	  N1	5.900	14.214	18.967	N.pl3	1	UNK0	0.000	
9	  C5	7.022	14.698	19.868	C.2	1	UNK0	0.000	
10	  N2	7.057	16.110	19.839	N.2	1	UNK0	0.000	
11	  C6	5.887	16.608	18.867	C.2	1	UNK0	0.000	
12	  C7	5.383	17.842	18.388	C.2	1	UNK0	0.000	
13	  N3	5.877	19.088	18.735	N.pl3	1	UNK0	0.000	
14	  N4	4.358	17.878	17.517	N.2	1	UNK0	0.000	
15	  C8	3.805	16.699	17.120	C.2	1	UNK0	0.000	
16	  N5	4.142	15.426	17.468	N.2	1	UNK0	0.000	
17	  C9	5.175	15.390	18.345	C.2	1	UNK0	0.000	
18	 C10	2.447	11.122	18.269	C.3	1	UNK0	0.000	
19	  O4	1.840	12.095	19.140	O.3	1	UNK0	0.000	
20	  P1	0.972	13.315	18.516	P.3	1	UNK0	0.000	
21	  O5	0.756	14.478	19.425	O.co2	1	UNK0	0.000	
22	  O6	1.836	13.728	17.264	O.co2	1	UNK0	0.000	
23	  O7	-0.296	12.711	17.809	O.3	1	UNK0	0.000	
24	  P2	-1.332	12.140	18.806	P.3	1	UNK0	0.000	
25	  O8	-0.935	10.626	18.891	O.co2	1	UNK0	0.000	
26	  O9	-2.610	12.037	17.881	O.co2	1	UNK0	0.000	
27	 O10	-1.630	12.817	20.115	O.co2	1	UNK0	0.000	
@<TRIPOS>BOND
1 1 2 1
2 1 3 1
3 1 18 1
4 2 7 1
5 3 4 1
6 3 5 1
7 5 6 1
8 5 7 1
9 7 8 1
10 8 9 1
11 8 17 1
12 9 10 2
13 10 11 1
14 11 12 2
15 11 17 1
16 12 13 1
17 12 14 1
18 14 15 2
19 15 16 1
20 16 17 2
21 18 19 1
22 19 20 1
23 20 21 2
24 20 22 1
25 20 23 1
26 23 24 1
27 24 25 1
28 24 26 1
29 24 27 2
@<TRIPOS>SUBSTRUCTURE
1	UNK0	1	GROUP	1 ****	UNK
