# created with PyMOL 2.5.0
@<TRIPOS>MOLECULE
MOL
42 44 1                 
SMALL
USER_CHARGES
@<TRIPOS>ATOM
1	 H06	8.090	10.170	22.620	 H	1	UNK0	0.000	
2	 H07	10.560	10.930	23.630	 H	1	UNK0	0.000	
3	 H11	4.530	9.340	25.420	 H	1	UNK0	0.000	
4	 H12	3.780	8.770	23.930	 H	1	UNK0	0.000	
5	 H09	10.310	14.550	27.400	 H	1	UNK0	0.000	
6	 H01	5.720	8.350	22.860	 H	1	UNK0	0.000	
7	 H14	1.280	5.240	21.690	 H	1	UNK0	0.000	
8	 H15	1.400	4.030	22.900	 H	1	UNK0	0.000	
9	 H05	9.060	7.600	23.130	 H	1	UNK0	0.000	
10	 H03	6.310	6.190	23.970	 H	1	UNK0	0.000	
11	 H10	5.260	13.780	26.690	 H	1	UNK0	0.000	
12	 H02	6.860	7.770	25.580	 H	1	UNK0	0.000	
13	 H13	2.190	8.580	25.760	 H	1	UNK0	0.000	
14	 H04	8.640	9.110	25.390	 H	1	UNK0	0.000	
15	 H08	8.980	15.280	28.190	 H	1	UNK0	0.000	
16	  C1	5.900	8.720	23.870	C.3	1	UNK0	0.000	
17	  O1	6.330	10.140	23.750	O.3	1	UNK0	0.000	
18	  C2	7.060	7.910	24.510	C.3	1	UNK0	0.000	
19	  O2	7.200	6.620	23.970	O.3	1	UNK0	0.000	
20	  C3	8.320	8.840	24.380	C.3	1	UNK0	0.000	
21	  O3	9.440	8.280	23.750	O.3	1	UNK0	0.000	
22	  C4	7.790	10.140	23.660	C.3	1	UNK0	0.000	
23	  N1	8.400	11.350	24.290	N.pl3	1	UNK0	0.000	
24	  C5	9.890	11.570	24.220	C.2	1	UNK0	0.000	
25	  N2	10.240	12.670	25.030	N.2	1	UNK0	0.000	
26	  C6	8.880	13.220	25.690	C.2	1	UNK0	0.000	
27	  C7	8.530	14.230	26.640	C.2	1	UNK0	0.000	
28	  N3	9.410	15.020	27.280	N.pl3	1	UNK0	0.000	
29	  N4	7.230	14.380	26.980	N.2	1	UNK0	0.000	
30	  C8	6.300	13.600	26.400	C.2	1	UNK0	0.000	
31	  N5	6.460	12.570	25.500	N.2	1	UNK0	0.000	
32	  C9	7.760	12.390	25.180	C.2	1	UNK0	0.000	
33	 C10	4.590	8.590	24.640	C.3	1	UNK0	0.000	
34	  O4	4.500	7.290	25.230	O.3	1	UNK0	0.000	
35	  P1	3.040	6.670	25.590	P.3	1	UNK0	0.000	
36	  O5	3.040	5.360	26.330	O.co2	1	UNK0	0.000	
37	  O6	2.360	7.840	26.390	O.3	1	UNK0	0.000	
38	  O7	2.220	6.720	24.260	O.3	1	UNK0	0.000	
39	  P2	2.690	5.640	23.220	P.3	1	UNK0	0.000	
40	  O8	1.790	6.050	21.990	O.3	1	UNK0	0.000	
41	  O9	1.940	4.340	23.680	O.3	1	UNK0	0.000	
42	 O10	4.150	5.510	22.900	O.co2	1	UNK0	0.000	
@<TRIPOS>BOND
1 6 16 1
2 16 17 1
3 16 18 1
4 16 33 1
5 17 22 1
6 12 18 1
7 18 19 1
8 18 20 1
9 10 19 1
10 14 20 1
11 20 21 1
12 20 22 1
13 9 21 1
14 1 22 1
15 22 23 1
16 23 24 1
17 23 32 1
18 2 24 1
19 24 25 2
20 25 26 1
21 26 27 2
22 26 32 1
23 27 28 1
24 27 29 1
25 5 28 1
26 15 28 1
27 29 30 2
28 11 30 1
29 30 31 1
30 31 32 2
31 3 33 1
32 4 33 1
33 33 34 1
34 34 35 1
35 35 36 2
36 35 37 1
37 35 38 1
38 13 37 1
39 38 39 1
40 39 40 1
41 39 41 1
42 39 42 2
43 7 40 1
44 8 41 1
@<TRIPOS>SUBSTRUCTURE
1	UNK0	1	GROUP	1 ****	UNK
