# created with PyMOL 2.5.0
@<TRIPOS>MOLECULE
MOL
27 29 1                 
SMALL
USER_CHARGES
@<TRIPOS>ATOM
1	  C1	3.979	12.232	18.415	C.3	1	UNK0	0.000	
2	  O1	4.875	13.418	18.345	O.3	1	UNK0	0.000	
3	  C2	4.160	11.563	19.804	C.3	1	UNK0	0.000	
4	  O2	4.110	10.159	19.755	O.3	1	UNK0	0.000	
5	  C3	5.490	12.174	20.375	C.3	1	UNK0	0.000	
6	  O3	6.471	11.257	20.777	O.3	1	UNK0	0.000	
7	  C4	5.992	13.166	19.255	C.3	1	UNK0	0.000	
8	  N1	6.508	14.419	19.885	N.pl3	1	UNK0	0.000	
9	  C5	7.714	14.371	20.788	C.2	1	UNK0	0.000	
10	  N2	7.896	15.631	21.395	N.2	1	UNK0	0.000	
11	  C6	6.719	16.587	20.857	C.2	1	UNK0	0.000	
12	  C7	6.277	17.922	21.114	C.2	1	UNK0	0.000	
13	  N3	6.832	18.756	22.011	N.pl3	1	UNK0	0.000	
14	  N4	5.186	18.382	20.461	N.2	1	UNK0	0.000	
15	  C8	4.563	17.588	19.571	C.2	1	UNK0	0.000	
16	  N5	4.831	16.282	19.227	N.2	1	UNK0	0.000	
17	  C9	5.899	15.802	19.900	C.2	1	UNK0	0.000	
18	 C10	2.529	12.601	18.118	C.3	1	UNK0	0.000	
19	  O4	1.651	11.652	18.730	O.3	1	UNK0	0.000	
20	  P1	0.153	11.441	18.132	P.3	1	UNK0	0.000	
21	  O5	-0.750	10.527	18.914	O.co2	1	UNK0	0.000	
22	  O6	-0.385	12.914	18.030	O.co2	1	UNK0	0.000	
23	  O7	0.347	11.103	16.618	O.3	1	UNK0	0.000	
24	  P2	0.904	9.652	16.390	P.3	1	UNK0	0.000	
25	  O8	1.111	9.692	14.826	O.co2	1	UNK0	0.000	
26	  O9	-0.380	8.752	16.468	O.co2	1	UNK0	0.000	
27	 O10	2.107	9.194	17.160	O.co2	1	UNK0	0.000	
@<TRIPOS>BOND
1 1 2 1
2 1 3 1
3 1 18 1
4 2 7 1
5 3 4 1
6 3 5 1
7 5 6 1
8 5 7 1
9 7 8 1
10 8 9 1
11 8 17 1
12 9 10 2
13 10 11 1
14 11 12 2
15 11 17 1
16 12 13 1
17 12 14 1
18 14 15 2
19 15 16 1
20 16 17 2
21 18 19 1
22 19 20 1
23 20 21 2
24 20 22 1
25 20 23 1
26 23 24 1
27 24 25 1
28 24 26 1
29 24 27 2
@<TRIPOS>SUBSTRUCTURE
1	UNK0	1	GROUP	1 ****	UNK
