# created with PyMOL 2.5.0
@<TRIPOS>MOLECULE
B2AR/3nya_JTZ.pdb
41 41 1                 
SMALL
USER_CHARGES
@<TRIPOS>ATOM
1	 H07	-4.475	0.540	-55.002	 H	1	UNK0	0.000	
2	 H09	-3.327	2.889	-57.577	 H	1	UNK0	0.000	
3	 H08	-5.042	2.615	-57.186	 H	1	UNK0	0.000	
4	 H14	-5.067	-0.717	-56.272	 H	1	UNK0	0.000	
5	 H13	-4.378	-0.898	-57.904	 H	1	UNK0	0.000	
6	 H12	-5.697	0.263	-57.618	 H	1	UNK0	0.000	
7	 H10	-4.350	1.936	-58.678	 H	1	UNK0	0.000	
8	 H15	-2.762	2.488	-50.013	 H	1	UNK0	0.000	
9	 H22	-0.323	8.413	-54.271	 H	1	UNK0	0.000	
10	 H17	-3.421	6.425	-48.423	 H	1	UNK0	0.000	
11	 H20	-2.663	5.335	-53.766	 H	1	UNK0	0.000	
12	 H19	-3.498	6.802	-53.104	 H	1	UNK0	0.000	
13	 H18	-3.072	7.389	-50.678	 H	1	UNK0	0.000	
14	 H21	-0.586	6.800	-52.519	 H	1	UNK0	0.000	
15	 H16	-3.314	3.966	-48.102	 H	1	UNK0	0.000	
16	 H11	-2.774	0.625	-57.209	 H	1	UNK0	0.000	
17	 H23	-2.058	8.030	-54.907	 H	1	UNK0	0.000	
18	 H01	-3.759	2.553	-53.705	 H	1	UNK0	0.000	
19	 H02	-3.722	1.977	-52.011	 H	1	UNK0	0.000	
20	 H03	-1.263	1.278	-53.169	 H	1	UNK0	0.000	
21	 H04	-2.680	0.111	-51.607	 H	1	UNK0	0.000	
22	 H05	-2.420	-0.432	-54.892	 H	1	UNK0	0.000	
23	 H06	-1.643	1.135	-55.369	 H	1	UNK0	0.000	
24	   C	-3.119	2.241	-52.880	C.3	1	UNK0	0.000	
25	   C	-2.309	1.012	-53.324	C.3	1	UNK0	0.000	
26	   O	-2.688	-0.125	-52.537	O.3	1	UNK0	0.000	
27	   C	-2.454	0.656	-54.822	C.3	1	UNK0	0.000	
28	   N	-3.730	1.081	-55.416	N.3	1	UNK0	0.000	
29	   C	-4.150	2.177	-57.634	C.3	1	UNK0	0.000	
30	   C	-3.775	0.901	-56.878	C.3	1	UNK0	0.000	
31	   C	-4.803	-0.192	-57.190	C.3	1	UNK0	0.000	
32	   O	-2.248	3.330	-52.536	O.3	1	UNK0	0.000	
33	   C	-2.621	4.089	-51.451	C.2	1	UNK0	0.000	
34	   C	-2.834	3.564	-50.169	C.2	1	UNK0	0.000	
35	   C	-3.137	4.396	-49.088	C.2	1	UNK0	0.000	
36	   C	-3.211	5.771	-49.269	C.2	1	UNK0	0.000	
37	   C	-3.016	6.309	-50.539	C.2	1	UNK0	0.000	
38	   C	-2.747	5.480	-51.646	C.2	1	UNK0	0.000	
39	   C	-2.650	6.123	-53.014	C.3	1	UNK0	0.000	
40	   C	-1.413	6.947	-53.215	C.2	1	UNK0	0.000	
41	   C	-1.255	7.854	-54.192	C.2	1	UNK0	0.000	
@<TRIPOS>BOND
1 18 24 1
2 19 24 1
3 24 32 1
4 20 25 1
5 24 25 1
6 25 26 1
7 25 27 1
8 21 26 1
9 22 27 1
10 23 27 1
11 1 28 1
12 27 28 1
13 2 29 1
14 3 29 1
15 7 29 1
16 29 30 1
17 16 30 1
18 28 30 1
19 30 31 1
20 4 31 1
21 5 31 1
22 6 31 1
23 32 33 1
24 33 34 1
25 33 38 2
26 8 34 1
27 34 35 2
28 15 35 1
29 35 36 1
30 10 36 1
31 36 37 2
32 13 37 1
33 37 38 1
34 38 39 1
35 11 39 1
36 12 39 1
37 39 40 1
38 14 40 1
39 40 41 2
40 9 41 1
41 17 41 1
@<TRIPOS>SUBSTRUCTURE
1	UNK0	1	GROUP	1 ****	UNK
