B2AR/3nya_JTZ.pdb
 OpenBabel03022313493D

 20 20  0  0  0  0  0  0  0  0999 V2000
   -2.6507    5.4855  -49.7256 C   0  0  0  0  0  0  0  0  0  0  0  0
   -3.4290    6.2328  -50.8207 C   0  0  1  0  0  0  0  0  0  0  0  0
   -3.4585    7.6345  -50.5197 O   0  0  0  0  0  0  0  0  0  0  0  0
   -2.5293    7.9320  -50.5005 H   0  0  0  0  0  0  0  0  0  0  0  0
   -2.8704    6.0398  -52.2498 C   0  0  0  0  0  0  0  0  0  0  0  0
   -3.7017    6.6420  -53.3029 N   0  0  0  0  0  0  0  0  0  0  0  0
   -4.2399    5.9051  -53.7599 H   0  0  0  0  0  0  0  0  0  0  0  0
   -1.4832    7.6503  -53.8998 C   0  0  0  0  0  0  0  0  0  0  0  0
   -2.9122    7.3262  -54.3413 C   0  0  0  0  0  0  0  0  0  0  0  0
   -3.6342    8.6275  -54.7077 C   0  0  0  0  0  0  0  0  0  0  0  0
   -3.1122    4.1314  -49.6045 O   0  0  0  0  0  0  0  0  0  0  0  0
   -2.1506    3.1789  -49.3566 C   0  0  0  0  0  0  0  0  0  0  0  0
   -1.2100    3.2736  -48.3218 C   0  0  0  0  0  0  0  0  0  0  0  0
   -0.3055    2.2383  -48.0705 C   0  0  0  0  0  0  0  0  0  0  0  0
   -0.3418    1.0821  -48.8391 C   0  0  0  0  0  0  0  0  0  0  0  0
   -1.2608    0.9765  -49.8801 C   0  0  0  0  0  0  0  0  0  0  0  0
   -2.1540    2.0273  -50.1695 C   0  0  0  0  0  0  0  0  0  0  0  0
   -3.0535    1.8875  -51.3811 C   0  0  0  0  0  0  0  0  0  0  0  0
   -2.3209    1.9051  -52.6895 C   0  0  0  0  0  0  0  0  0  0  0  0
   -1.9794    0.8074  -53.3829 C   0  0  0  0  0  0  0  0  0  0  0  0
  1 11  1  0  0  0  0
  2  1  1  1  0  0  0
  2  3  1  0  0  0  0
  2  5  1  0  0  0  0
  3  4  1  0  0  0  0
  6  5  1  0  0  0  0
  6  7  1  0  0  0  0
  8  9  1  0  0  0  0
  9  6  1  0  0  0  0
  9 10  1  0  0  0  0
 11 12  1  0  0  0  0
 12 13  1  0  0  0  0
 12 17  2  0  0  0  0
 13 14  2  0  0  0  0
 14 15  1  0  0  0  0
 15 16  2  0  0  0  0
 16 17  1  0  0  0  0
 17 18  1  0  0  0  0
 18 19  1  0  0  0  0
 19 20  2  0  0  0  0
M  END
>  <minimizedAffinity>
-8.26270

$$$$
