B2AR/3nya_JTZ.pdb
 OpenBabel03022313493D

 20 20  0  0  0  0  0  0  0  0999 V2000
   -2.7463    8.8557  -54.8255 C   0  0  0  0  0  0  0  0  0  0  0  0
   -2.4788    8.1649  -53.4784 C   0  0  1  0  0  0  0  0  0  0  0  0
   -3.0664    8.9316  -52.4186 O   0  0  0  0  0  0  0  0  0  0  0  0
   -4.0248    8.9630  -52.5996 H   0  0  0  0  0  0  0  0  0  0  0  0
   -2.9962    6.7102  -53.3897 C   0  0  0  0  0  0  0  0  0  0  0  0
   -3.6611    6.3889  -52.1179 N   0  0  0  0  0  0  0  0  0  0  0  0
   -4.0321    7.2492  -51.7132 H   0  0  0  0  0  0  0  0  0  0  0  0
   -2.5145    4.2919  -51.3544 C   0  0  0  0  0  0  0  0  0  0  0  0
   -2.7524    5.7865  -51.1273 C   0  0  0  0  0  0  0  0  0  0  0  0
   -3.3601    5.9946  -49.7358 C   0  0  0  0  0  0  0  0  0  0  0  0
   -4.1556    8.9379  -55.0865 O   0  0  0  0  0  0  0  0  0  0  0  0
   -4.7096   10.1970  -55.0545 C   0  0  0  0  0  0  0  0  0  0  0  0
   -5.3059   10.7562  -53.9160 C   0  0  0  0  0  0  0  0  0  0  0  0
   -5.7839   12.0694  -53.9218 C   0  0  0  0  0  0  0  0  0  0  0  0
   -5.6542   12.8511  -55.0625 C   0  0  0  0  0  0  0  0  0  0  0  0
   -5.0765   12.3073  -56.2071 C   0  0  0  0  0  0  0  0  0  0  0  0
   -4.6239   10.9730  -56.2283 C   0  0  0  0  0  0  0  0  0  0  0  0
   -4.1034   10.4155  -57.5378 C   0  0  0  0  0  0  0  0  0  0  0  0
   -5.1731    9.8700  -58.4362 C   0  0  0  0  0  0  0  0  0  0  0  0
   -5.4056    8.5623  -58.6321 C   0  0  0  0  0  0  0  0  0  0  0  0
  1 11  1  0  0  0  0
  2  1  1  6  0  0  0
  2  3  1  0  0  0  0
  2  5  1  0  0  0  0
  3  4  1  0  0  0  0
  6  5  1  0  0  0  0
  6  7  1  0  0  0  0
  8  9  1  0  0  0  0
  9  6  1  0  0  0  0
  9 10  1  0  0  0  0
 11 12  1  0  0  0  0
 12 13  1  0  0  0  0
 12 17  2  0  0  0  0
 13 14  2  0  0  0  0
 14 15  1  0  0  0  0
 15 16  2  0  0  0  0
 16 17  1  0  0  0  0
 17 18  1  0  0  0  0
 18 19  1  0  0  0  0
 19 20  2  0  0  0  0
M  END
>  <minimizedAffinity>
-8.51277

$$$$
