# created with PyMOL 2.5.0
@<TRIPOS>MOLECULE
B2AR/3nya_JTZ.pdb
41 41 1                 
SMALL
USER_CHARGES
@<TRIPOS>ATOM
1	 H07	-4.042	7.240	-51.730	 H	1	UNK0	0.000	
2	 H09	-3.312	3.720	-50.879	 H	1	UNK0	0.000	
3	 H08	-1.556	4.007	-50.921	 H	1	UNK0	0.000	
4	 H14	-3.376	7.059	-49.501	 H	1	UNK0	0.000	
5	 H13	-2.760	5.468	-48.994	 H	1	UNK0	0.000	
6	 H12	-4.378	5.605	-49.722	 H	1	UNK0	0.000	
7	 H10	-2.505	4.083	-52.424	 H	1	UNK0	0.000	
8	 H15	-5.398	10.157	-53.011	 H	1	UNK0	0.000	
9	 H22	-6.204	8.245	-59.303	 H	1	UNK0	0.000	
10	 H17	-6.002	13.884	-55.062	 H	1	UNK0	0.000	
11	 H20	-3.583	11.213	-58.068	 H	1	UNK0	0.000	
12	 H19	-3.447	9.582	-57.287	 H	1	UNK0	0.000	
13	 H18	-4.973	12.923	-57.100	 H	1	UNK0	0.000	
14	 H21	-5.804	10.583	-58.966	 H	1	UNK0	0.000	
15	 H16	-6.259	12.480	-53.031	 H	1	UNK0	0.000	
16	 H11	-1.783	6.275	-51.226	 H	1	UNK0	0.000	
17	 H23	-4.796	7.818	-58.120	 H	1	UNK0	0.000	
18	 H01	-2.340	9.866	-54.786	 H	1	UNK0	0.000	
19	 H02	-2.268	8.285	-55.621	 H	1	UNK0	0.000	
20	 H03	-1.394	8.114	-53.384	 H	1	UNK0	0.000	
21	 H04	-3.106	9.856	-52.675	 H	1	UNK0	0.000	
22	 H05	-2.124	6.060	-53.463	 H	1	UNK0	0.000	
23	 H06	-3.708	6.549	-54.200	 H	1	UNK0	0.000	
24	   C	-2.746	8.856	-54.826	C.3	1	UNK0	0.000	
25	   C	-2.479	8.165	-53.478	C.3	1	UNK0	0.000	
26	   O	-3.066	8.932	-52.419	O.3	1	UNK0	0.000	
27	   C	-2.996	6.710	-53.390	C.3	1	UNK0	0.000	
28	   N	-3.661	6.389	-52.118	N.3	1	UNK0	0.000	
29	   C	-2.514	4.292	-51.354	C.3	1	UNK0	0.000	
30	   C	-2.752	5.786	-51.127	C.3	1	UNK0	0.000	
31	   C	-3.360	5.995	-49.736	C.3	1	UNK0	0.000	
32	   O	-4.156	8.938	-55.086	O.3	1	UNK0	0.000	
33	   C	-4.710	10.197	-55.055	C.2	1	UNK0	0.000	
34	   C	-5.306	10.756	-53.916	C.2	1	UNK0	0.000	
35	   C	-5.784	12.069	-53.922	C.2	1	UNK0	0.000	
36	   C	-5.654	12.851	-55.062	C.2	1	UNK0	0.000	
37	   C	-5.076	12.307	-56.207	C.2	1	UNK0	0.000	
38	   C	-4.624	10.973	-56.228	C.2	1	UNK0	0.000	
39	   C	-4.103	10.415	-57.538	C.3	1	UNK0	0.000	
40	   C	-5.173	9.870	-58.436	C.2	1	UNK0	0.000	
41	   C	-5.406	8.562	-58.632	C.2	1	UNK0	0.000	
@<TRIPOS>BOND
1 18 24 1
2 19 24 1
3 24 32 1
4 20 25 1
5 24 25 1
6 25 26 1
7 25 27 1
8 21 26 1
9 22 27 1
10 23 27 1
11 1 28 1
12 27 28 1
13 2 29 1
14 3 29 1
15 7 29 1
16 29 30 1
17 16 30 1
18 28 30 1
19 30 31 1
20 4 31 1
21 5 31 1
22 6 31 1
23 32 33 1
24 33 34 1
25 33 38 2
26 8 34 1
27 34 35 2
28 15 35 1
29 35 36 1
30 10 36 1
31 36 37 2
32 13 37 1
33 37 38 1
34 38 39 1
35 11 39 1
36 12 39 1
37 39 40 1
38 14 40 1
39 40 41 2
40 9 41 1
41 17 41 1
@<TRIPOS>SUBSTRUCTURE
1	UNK0	1	GROUP	1 ****	UNK
