# created with PyMOL 2.5.0
@<TRIPOS>MOLECULE
B2AR/3nya_JTZ.pdb
41 41 1                 
SMALL
USER_CHARGES
@<TRIPOS>ATOM
1	 H07	-4.246	5.912	-53.740	 H	1	UNK0	0.000	
2	 H09	-1.483	8.570	-53.314	 H	1	UNK0	0.000	
3	 H08	-0.852	7.780	-54.779	 H	1	UNK0	0.000	
4	 H14	-3.837	8.642	-55.779	 H	1	UNK0	0.000	
5	 H13	-3.006	9.479	-54.445	 H	1	UNK0	0.000	
6	 H12	-4.575	8.687	-54.160	 H	1	UNK0	0.000	
7	 H10	-1.095	6.832	-53.293	 H	1	UNK0	0.000	
8	 H15	-1.184	4.170	-47.702	 H	1	UNK0	0.000	
9	 H22	-1.446	0.904	-54.329	 H	1	UNK0	0.000	
10	 H17	0.345	0.262	-48.629	 H	1	UNK0	0.000	
11	 H20	-3.592	0.943	-51.302	 H	1	UNK0	0.000	
12	 H19	-3.719	2.751	-51.381	 H	1	UNK0	0.000	
13	 H18	-1.290	0.067	-50.480	 H	1	UNK0	0.000	
14	 H21	-2.047	2.875	-53.106	 H	1	UNK0	0.000	
15	 H16	0.429	2.338	-47.271	 H	1	UNK0	0.000	
16	 H11	-2.829	6.652	-55.194	 H	1	UNK0	0.000	
17	 H23	-2.235	-0.181	-53.000	 H	1	UNK0	0.000	
18	 H01	-1.595	5.471	-49.996	 H	1	UNK0	0.000	
19	 H02	-2.791	5.998	-48.774	 H	1	UNK0	0.000	
20	 H03	-4.429	5.800	-50.819	 H	1	UNK0	0.000	
21	 H04	-3.037	8.124	-51.230	 H	1	UNK0	0.000	
22	 H05	-2.851	4.966	-52.438	 H	1	UNK0	0.000	
23	 H06	-1.879	6.491	-52.295	 H	1	UNK0	0.000	
24	   C	-2.651	5.485	-49.726	C.3	1	UNK0	0.000	
25	   C	-3.429	6.233	-50.821	C.3	1	UNK0	0.000	
26	   O	-3.458	7.635	-50.520	O.3	1	UNK0	0.000	
27	   C	-2.870	6.040	-52.250	C.3	1	UNK0	0.000	
28	   N	-3.702	6.642	-53.303	N.3	1	UNK0	0.000	
29	   C	-1.483	7.650	-53.900	C.3	1	UNK0	0.000	
30	   C	-2.912	7.326	-54.341	C.3	1	UNK0	0.000	
31	   C	-3.634	8.627	-54.708	C.3	1	UNK0	0.000	
32	   O	-3.112	4.131	-49.604	O.3	1	UNK0	0.000	
33	   C	-2.151	3.179	-49.357	C.2	1	UNK0	0.000	
34	   C	-1.210	3.274	-48.322	C.2	1	UNK0	0.000	
35	   C	-0.306	2.238	-48.070	C.2	1	UNK0	0.000	
36	   C	-0.342	1.082	-48.839	C.2	1	UNK0	0.000	
37	   C	-1.261	0.976	-49.880	C.2	1	UNK0	0.000	
38	   C	-2.154	2.027	-50.169	C.2	1	UNK0	0.000	
39	   C	-3.053	1.888	-51.381	C.3	1	UNK0	0.000	
40	   C	-2.321	1.905	-52.689	C.2	1	UNK0	0.000	
41	   C	-1.979	0.807	-53.383	C.2	1	UNK0	0.000	
@<TRIPOS>BOND
1 18 24 1
2 19 24 1
3 24 32 1
4 20 25 1
5 24 25 1
6 25 26 1
7 25 27 1
8 21 26 1
9 22 27 1
10 23 27 1
11 1 28 1
12 27 28 1
13 2 29 1
14 3 29 1
15 7 29 1
16 29 30 1
17 16 30 1
18 28 30 1
19 30 31 1
20 4 31 1
21 5 31 1
22 6 31 1
23 32 33 1
24 33 34 1
25 33 38 2
26 8 34 1
27 34 35 2
28 15 35 1
29 35 36 1
30 10 36 1
31 36 37 2
32 13 37 1
33 37 38 1
34 38 39 1
35 11 39 1
36 12 39 1
37 39 40 1
38 14 40 1
39 40 41 2
40 9 41 1
41 17 41 1
@<TRIPOS>SUBSTRUCTURE
1	UNK0	1	GROUP	1 ****	UNK
