# created with PyMOL 2.5.0
@<TRIPOS>MOLECULE
lig
35 42 1                 
SMALL
USER_CHARGES
@<TRIPOS>ATOM
1	  C1	-7.622	207.289	114.067	C.2	1	STU299	0.000	
2	  N1	-12.959	206.389	109.472	N.pl3	1	STU299	0.000	
3	  C2	-6.804	207.811	113.091	C.2	1	STU299	0.000	
4	  N2	-12.796	205.133	115.197	N.2	1	STU299	0.000	
5	  C3	-7.268	207.947	111.762	C.2	1	STU299	0.000	
6	  N3	-9.898	206.398	114.457	N.2	1	STU299	0.000	
7	  C4	-8.525	207.553	111.411	C.2	1	STU299	0.000	
8	  N4	-10.799	207.917	118.924	N.3	1	STU299	0.000	
9	  O4	-10.624	204.862	116.095	O.3	1	STU299	0.000	
10	  C5	-9.392	207.044	112.352	C.2	1	STU299	0.000	
11	  O5	-10.819	207.208	109.280	O.2	1	STU299	0.000	
12	  C6	-10.702	206.527	112.346	C.2	1	STU299	0.000	
13	  O6	-12.224	207.614	116.261	O.3	1	STU299	0.000	
14	  C7	-11.783	206.350	111.362	C.2	1	STU299	0.000	
15	  C8	-11.738	206.726	109.913	C.2	1	STU299	0.000	
16	  C9	-13.879	205.835	110.444	C.2	1	STU299	0.000	
17	 C10	-12.954	205.859	111.675	C.2	1	STU299	0.000	
18	 C11	-13.280	205.458	112.992	C.2	1	STU299	0.000	
19	 C12	-14.416	204.904	113.623	C.2	1	STU299	0.000	
20	 C13	-15.670	204.583	113.160	C.2	1	STU299	0.000	
21	 C14	-16.630	204.052	113.989	C.2	1	STU299	0.000	
22	 C15	-16.294	203.859	115.362	C.2	1	STU299	0.000	
23	 C16	-15.064	204.197	115.842	C.2	1	STU299	0.000	
24	 C17	-14.119	204.708	115.007	C.2	1	STU299	0.000	
25	 C18	-12.230	205.594	113.980	C.2	1	STU299	0.000	
26	 C19	-11.031	206.094	113.667	C.2	1	STU299	0.000	
27	 C20	-8.917	206.923	113.690	C.2	1	STU299	0.000	
28	 C21	-11.965	205.174	116.432	C.3	1	STU299	0.000	
29	 C22	-12.117	206.528	117.203	C.3	1	STU299	0.000	
30	 C23	-10.748	206.710	117.920	C.3	1	STU299	0.000	
31	 C24	-9.661	206.988	116.879	C.3	1	STU299	0.000	
32	 C25	-9.675	205.875	115.800	C.3	1	STU299	0.000	
33	 C26	-12.386	204.071	117.385	C.3	1	STU299	0.000	
34	 C27	-13.559	207.808	115.837	C.3	1	STU299	0.000	
35	 C28	-10.109	207.563	120.196	C.3	1	STU299	0.000	
@<TRIPOS>BOND
1 1 3 ar
2 2 15 ar
3 3 5 ar
4 4 24 ar
5 4 25 ar
6 5 7 ar
7 8 35 1
8 9 28 1
9 9 32 1
10 7 10 ar
11 10 27 ar
12 10 12 ar
13 12 14 ar
14 13 34 1
15 14 15 ar
16 14 17 ar
17 11 15 2
18 2 16 ar
19 16 17 ar
20 17 18 ar
21 18 19 ar
22 19 20 ar
23 19 24 ar
24 20 21 ar
25 21 22 ar
26 22 23 ar
27 23 24 ar
28 18 25 ar
29 25 26 ar
30 6 26 ar
31 12 26 ar
32 1 27 ar
33 6 27 ar
34 4 28 1
35 28 33 1
36 13 29 1
37 28 29 1
38 8 30 1
39 29 30 1
40 30 31 1
41 6 32 1
42 31 32 1
@<TRIPOS>SUBSTRUCTURE
1	STU299	1	GROUP	1 A	STU
