# created with PyMOL 2.5.0
@<TRIPOS>MOLECULE
lig
31 33 1                 
SMALL
USER_CHARGES
@<TRIPOS>ATOM
1	  PA	-13.680	203.746	117.860	P.3	1	ATP381	0.000	
2	  PB	-13.923	205.550	120.100	P.3	1	ATP381	0.000	
3	  PG	-16.587	204.534	120.411	P.3	1	ATP381	0.000	
4	 C5'	-11.102	203.744	117.401	C.3	1	ATP381	0.000	
5	 O5'	-12.380	204.376	117.192	O.3	1	ATP381	0.000	
6	 C4'	-10.109	204.827	116.960	C.3	1	ATP381	0.000	
7	 O4'	-10.071	204.892	115.529	O.3	1	ATP381	0.000	
8	 C3'	-10.568	206.208	117.441	C.3	1	ATP381	0.000	
9	 O3'	-9.392	206.981	117.747	O.3	1	ATP381	0.000	
10	 C2'	-11.245	206.819	116.165	C.3	1	ATP381	0.000	
11	 O2'	-10.861	208.219	116.165	O.3	1	ATP381	0.000	
12	 C1'	-10.433	206.145	115.038	C.3	1	ATP381	0.000	
13	  N1	-11.376	207.032	110.012	N.2	1	ATP381	0.000	
14	 O1A	-13.472	202.250	117.917	O.co2	1	ATP381	0.000	
15	 O1B	-14.345	206.435	118.994	O.co2	1	ATP381	0.000	
16	 O1G	-17.614	204.632	121.439	O.co2	1	ATP381	0.000	
17	  C2	-10.196	207.050	110.681	C.2	1	ATP381	0.000	
18	 O2A	-14.858	204.217	117.180	O.co2	1	ATP381	0.000	
19	 O2B	-12.836	206.015	120.951	O.co2	1	ATP381	0.000	
20	 O2G	-16.915	205.193	119.120	O.co2	1	ATP381	0.000	
21	  N3	-9.966	206.765	111.938	N.2	1	ATP381	0.000	
22	 O3A	-13.580	204.122	119.448	O.3	1	ATP381	0.000	
23	 O3B	-15.179	205.025	120.928	O.3	1	ATP381	0.000	
24	 O3G	-16.427	203.050	120.139	O.co2	1	ATP381	0.000	
25	  C4	-11.078	206.325	112.541	C.2	1	ATP381	0.000	
26	  C5	-12.328	206.244	111.972	C.2	1	ATP381	0.000	
27	  C6	-12.497	206.596	110.629	C.2	1	ATP381	0.000	
28	  N6	-13.595	206.564	109.896	N.pl3	1	ATP381	0.000	
29	  N7	-13.196	205.775	112.844	N.2	1	ATP381	0.000	
30	  C8	-12.550	205.586	113.915	C.2	1	ATP381	0.000	
31	  N9	-11.236	205.898	113.844	N.2	1	ATP381	0.000	
@<TRIPOS>BOND
1 1 5 1
2 1 14 1
3 1 18 2
4 1 22 1
5 2 15 1
6 2 19 2
7 2 22 1
8 2 23 1
9 3 16 1
10 3 20 1
11 3 23 1
12 3 24 2
13 4 6 1
14 4 5 1
15 6 7 1
16 6 8 1
17 7 12 1
18 8 9 1
19 8 10 1
20 10 11 1
21 10 12 1
22 12 31 1
23 13 17 ar
24 17 21 ar
25 21 25 ar
26 25 26 ar
27 26 27 ar
28 13 27 ar
29 27 28 1
30 26 29 ar
31 29 30 ar
32 25 31 ar
33 30 31 ar
@<TRIPOS>SUBSTRUCTURE
1	ATP381	1	GROUP	1 A	ATP
