# created with PyMOL 2.5.0
@<TRIPOS>MOLECULE
lig
31 34 1                 
SMALL
USER_CHARGES
@<TRIPOS>ATOM
1	  PA	-13.579	203.656	117.844	P.3	1	ATP381	0.000	
2	  PB	-13.981	205.626	120.069	P.3	1	ATP381	0.000	
3	  PG	-16.548	204.500	120.483	P.3	1	ATP381	0.000	
4	 C5'	-11.123	203.814	117.307	C.3	1	ATP381	0.000	
5	 O5'	-12.445	204.378	117.026	O.3	1	ATP381	0.000	
6	 C4'	-10.091	204.850	116.862	C.3	1	ATP381	0.000	
7	 O4'	-10.107	204.941	115.426	O.3	1	ATP381	0.000	
8	 C3'	-10.461	206.234	117.416	C.3	1	ATP381	0.000	
9	 O3'	-9.170	206.911	117.562	O.3	1	ATP381	0.000	
10	 C2'	-11.195	206.835	116.160	C.3	1	ATP381	0.000	
11	 O2'	-11.105	208.278	116.265	O.3	1	ATP381	0.000	
12	 C1'	-10.364	206.242	114.984	C.3	1	ATP381	0.000	
13	  N1	-11.268	207.176	109.910	N.2	1	ATP381	0.000	
14	 O1A	-13.308	202.177	117.972	O.co2	1	ATP381	0.000	
15	 O1B	-14.349	206.619	119.076	O.co2	1	ATP381	0.000	
16	 O1G	-17.674	204.865	121.352	O.co2	1	ATP381	0.000	
17	  C2	-10.083	207.256	110.593	C.2	1	ATP381	0.000	
18	 O2A	-14.917	203.790	117.225	O.co2	1	ATP381	0.000	
19	 O2B	-12.857	206.103	120.913	O.co2	1	ATP381	0.000	
20	 O2G	-16.774	204.965	119.092	O.co2	1	ATP381	0.000	
21	  N3	-9.841	206.910	111.850	N.2	1	ATP381	0.000	
22	 O3A	-13.466	204.268	119.342	O.3	1	ATP381	0.000	
23	 O3B	-15.152	205.057	120.981	O.3	1	ATP381	0.000	
24	 O3G	-16.465	203.009	120.385	O.co2	1	ATP381	0.000	
25	  C4	-10.970	206.435	112.435	C.2	1	ATP381	0.000	
26	  C5	-12.215	206.315	111.843	C.2	1	ATP381	0.000	
27	  C6	-12.372	206.699	110.529	C.2	1	ATP381	0.000	
28	  N6	-13.483	206.683	109.807	N.pl3	1	ATP381	0.000	
29	  N7	-13.113	205.847	112.680	N.2	1	ATP381	0.000	
30	  C8	-12.455	205.654	113.753	C.2	1	ATP381	0.000	
31	  N9	-11.136	205.994	113.754	N.2	1	ATP381	0.000	
@<TRIPOS>BOND
1 1 5 1
2 1 14 1
3 1 18 2
4 1 22 1
5 2 15 1
6 2 19 2
7 2 22 1
8 2 23 1
9 3 16 1
10 3 20 1
11 3 23 1
12 3 24 2
13 4 6 1
14 4 5 1
15 6 7 1
16 6 8 1
17 7 12 1
18 8 9 1
19 8 10 1
20 10 11 1
21 10 12 1
22 12 31 1
23 13 17 ar
24 17 21 ar
25 21 25 ar
26 25 26 ar
27 26 27 ar
28 13 27 ar
29 27 28 1
30 26 29 ar
31 26 30 1
32 29 30 ar
33 25 31 ar
34 30 31 ar
@<TRIPOS>SUBSTRUCTURE
1	ATP381	1	GROUP	1 A	ATP
