# created with PyMOL 2.5.0
@<TRIPOS>MOLECULE
lig
18 20 1                 
SMALL
USER_CHARGES
@<TRIPOS>ATOM
1	 CL1	-6.692	209.568	116.181	Cl	1	PVB299	0.000	
2	 C1A	-7.765	208.064	112.619	C.2	1	PVB299	0.000	
3	  N1	-10.107	206.772	113.543	N.2	1	PVB299	0.000	
4	  C2	-11.181	206.034	114.020	C.2	1	PVB299	0.000	
5	 C2A	-6.566	207.512	112.167	C.2	1	PVB299	0.000	
6	 C3A	-5.411	207.591	112.946	C.2	1	PVB299	0.000	
7	  N3	-12.248	205.680	113.321	N.2	1	PVB299	0.000	
8	  C4	-12.203	206.114	112.026	C.2	1	PVB299	0.000	
9	 C4A	-5.445	208.225	114.190	C.2	1	PVB299	0.000	
10	  C5	-11.187	206.864	111.395	C.2	1	PVB299	0.000	
11	 C5A	-6.642	208.783	114.653	C.2	1	PVB299	0.000	
12	  C6	-10.045	207.222	112.232	C.2	1	PVB299	0.000	
13	 C6A	-7.800	208.703	113.868	C.2	1	PVB299	0.000	
14	  N6	-8.953	207.975	111.779	N.pl3	1	PVB299	0.000	
15	  N7	-11.475	207.128	110.093	N.2	1	PVB299	0.000	
16	  C8	-12.667	206.576	109.881	C.2	1	PVB299	0.000	
17	  C9	-14.515	205.239	111.112	C.3	1	PVB299	0.000	
18	  N9	-13.181	205.935	111.024	N.2	1	PVB299	0.000	
@<TRIPOS>BOND
1 2 5 ar
2 2 13 ar
3 3 4 ar
4 3 12 ar
5 5 6 ar
6 6 9 ar
7 4 7 ar
8 7 8 ar
9 8 10 ar
10 9 11 ar
11 10 15 ar
12 1 11 1
13 11 13 ar
14 10 12 ar
15 12 14 1
16 2 14 1
17 15 16 ar
18 17 18 1
19 8 18 ar
20 16 18 ar
@<TRIPOS>SUBSTRUCTURE
1	PVB299	1	GROUP	1 A	PVB
