# created with PyMOL 2.5.0
@<TRIPOS>MOLECULE
lig
22 24 1                 
SMALL
USER_CHARGES
@<TRIPOS>ATOM
1	  N1	-12.869	206.560	110.613	N.2	1	DTQ500	0.000	
2	  C2	-12.208	207.034	109.491	C.2	1	DTQ500	0.000	
3	  N3	-10.900	207.505	109.561	N.2	1	DTQ500	0.000	
4	  C4	-10.185	207.558	110.798	C.2	1	DTQ500	0.000	
5	  C5	-10.891	207.077	112.091	C.2	1	DTQ500	0.000	
6	  C6	-12.267	206.510	111.925	C.2	1	DTQ500	0.000	
7	  C7	-8.804	208.053	110.851	C.2	1	DTQ500	0.000	
8	  C8	-8.058	208.102	112.127	C.2	1	DTQ500	0.000	
9	  C9	-8.757	207.721	113.407	C.2	1	DTQ500	0.000	
10	 C10	-10.170	207.220	113.366	C.2	1	DTQ500	0.000	
11	 N12	-12.992	205.949	113.007	N.pl3	1	DTQ500	0.000	
12	 C14	-14.259	205.372	113.194	C.2	1	DTQ500	0.000	
13	 C15	-14.539	204.927	114.578	C.2	1	DTQ500	0.000	
14	 C16	-15.822	204.279	114.923	C.2	1	DTQ500	0.000	
15	 C17	-16.874	204.137	113.909	C.2	1	DTQ500	0.000	
16	 C18	-16.626	204.571	112.521	C.2	1	DTQ500	0.000	
17	 C19	-15.324	205.157	112.157	C.2	1	DTQ500	0.000	
18	 O21	-16.047	203.792	116.192	O.3	1	DTQ500	0.000	
19	 O26	-6.689	208.457	112.228	O.3	1	DTQ500	0.000	
20	 C27	-5.955	209.128	111.197	C.3	1	DTQ500	0.000	
21	 O31	-7.993	207.820	114.610	O.3	1	DTQ500	0.000	
22	 C32	-8.538	207.419	115.872	C.3	1	DTQ500	0.000	
@<TRIPOS>BOND
1 1 2 ar
2 1 6 ar
3 2 3 ar
4 3 4 ar
5 4 5 ar
6 4 7 ar
7 5 6 ar
8 5 10 ar
9 6 11 1
10 7 8 ar
11 8 9 ar
12 8 19 1
13 9 10 ar
14 9 21 1
15 11 12 1
16 12 13 ar
17 12 17 ar
18 13 14 ar
19 14 15 ar
20 14 18 1
21 15 16 ar
22 16 17 ar
23 19 20 1
24 21 22 1
@<TRIPOS>SUBSTRUCTURE
1	DTQ500	1	GROUP	1 A	DTQ
