# created with PyMOL 2.5.0
@<TRIPOS>MOLECULE
lig
19 21 1                 
SMALL
USER_CHARGES
@<TRIPOS>ATOM
1	  C1	-10.187	207.103	113.072	C.2	1	HMD400	0.000	
2	  N1	-10.345	207.199	111.750	N.pl3	1	HMD400	0.000	
3	  O1	-10.945	206.753	109.150	O.2	1	HMD400	0.000	
4	  C2	-11.209	206.403	113.642	C.2	1	HMD400	0.000	
5	  N2	-13.162	206.373	109.580	N.pl3	1	HMD400	0.000	
6	  O2	-16.203	203.954	113.421	O.2	1	HMD400	0.000	
7	  C3	-12.085	206.043	112.583	C.2	1	HMD400	0.000	
8	  N3	-15.557	204.401	115.582	N.pl3	1	HMD400	0.000	
9	  C4	-11.486	206.568	111.397	C.2	1	HMD400	0.000	
10	  N4	-13.562	205.350	115.183	N.2	1	HMD400	0.000	
11	  C5	-11.851	206.570	109.973	C.2	1	HMD400	0.000	
12	  N5	-14.255	205.158	117.395	N.pl3	1	HMD400	0.000	
13	  C6	-14.345	206.141	110.425	C.3	1	HMD400	0.000	
14	  C7	-14.186	204.971	111.379	C.3	1	HMD400	0.000	
15	  C8	-13.464	205.347	112.670	C.3	1	HMD400	0.000	
16	  C9	-14.062	205.068	113.903	C.2	1	HMD400	0.000	
17	 C10	-15.389	204.410	114.239	C.2	1	HMD400	0.000	
18	 C11	-14.466	204.972	116.106	C.2	1	HMD400	0.000	
19	 BR1	-8.719	207.883	113.887	Br	1	HMD400	0.000	
@<TRIPOS>BOND
1 1 4 ar
2 1 2 ar
3 2 9 ar
4 3 11 2
5 4 7 ar
6 5 11 1
7 5 13 1
8 6 17 2
9 7 9 ar
10 7 15 1
11 8 17 ar
12 8 18 ar
13 9 11 1
14 10 16 ar
15 10 18 ar
16 12 18 1
17 13 14 1
18 14 15 1
19 15 16 1
20 16 17 ar
21 1 19 1
@<TRIPOS>SUBSTRUCTURE
1	HMD400	1	GROUP	1 A	HMD
