# created with PyMOL 2.5.0
@<TRIPOS>MOLECULE
lig
18 20 1                 
SMALL
USER_CHARGES
@<TRIPOS>ATOM
1	  N1	-10.035	207.086	112.333	N.2	1	CMG401	0.000	
2	  C2	-9.777	207.520	111.106	C.2	1	CMG401	0.000	
3	  N2	-8.673	208.125	110.600	N.pl3	1	CMG401	0.000	
4	  N3	-10.748	207.448	110.176	N.2	1	CMG401	0.000	
5	  C4	-11.953	206.970	110.460	C.2	1	CMG401	0.000	
6	  C5	-12.193	206.503	111.715	C.2	1	CMG401	0.000	
7	  C6	-11.201	206.547	112.691	C.2	1	CMG401	0.000	
8	  O6	-11.525	206.076	113.962	O.3	1	CMG401	0.000	
9	  N7	-13.458	206.114	111.637	N.pl3	1	CMG401	0.000	
10	  C8	-14.052	206.245	110.402	C.2	1	CMG401	0.000	
11	  C9	-10.584	206.650	114.918	C.3	1	CMG401	0.000	
12	  N9	-13.047	206.840	109.717	N.2	1	CMG401	0.000	
13	 C10	-11.293	206.301	116.289	C.3	1	CMG401	0.000	
14	 C11	-11.163	204.750	116.461	C.3	1	CMG401	0.000	
15	 C12	-11.602	204.425	117.889	C.3	1	CMG401	0.000	
16	 C13	-10.262	204.671	118.622	C.3	1	CMG401	0.000	
17	 C14	-10.437	206.248	118.647	C.3	1	CMG401	0.000	
18	 C15	-10.053	206.523	117.163	C.3	1	CMG401	0.000	
@<TRIPOS>BOND
1 1 2 ar
2 1 7 ar
3 2 3 1
4 2 4 ar
5 4 5 ar
6 5 6 ar
7 5 12 ar
8 6 7 ar
9 6 9 ar
10 7 8 1
11 8 11 1
12 9 10 ar
13 10 12 ar
14 11 13 1
15 13 14 1
16 13 18 1
17 14 15 1
18 15 16 1
19 16 17 1
20 17 18 1
@<TRIPOS>SUBSTRUCTURE
1	CMG401	1	GROUP	1 A	CMG
