# created with PyMOL 2.5.0
@<TRIPOS>MOLECULE
lig
18 19 1                 
SMALL
USER_CHARGES
@<TRIPOS>ATOM
1	  C1	-9.989	206.592	114.621	C.3	1	NW1401	0.000	
2	  N1	-10.036	206.962	112.002	N.2	1	NW1401	0.000	
3	  C2	-9.973	207.335	110.662	C.2	1	NW1401	0.000	
4	  N2	-8.790	207.627	110.185	N.pl3	1	NW1401	0.000	
5	  C3	-10.325	206.475	116.110	C.3	1	NW1401	0.000	
6	  N3	-11.046	207.357	109.998	N.2	1	NW1401	0.000	
7	  C4	-12.398	207.073	110.502	C.2	1	NW1401	0.000	
8	  C5	-12.503	206.706	111.780	C.2	1	NW1401	0.000	
9	  C6	-11.235	206.661	112.569	C.2	1	NW1401	0.000	
10	  O6	-11.235	206.323	113.924	O.3	1	NW1401	0.000	
11	  C7	-9.059	206.458	117.012	C.3	1	NW1401	0.000	
12	  N7	-13.708	206.391	112.524	N.pl3	1	NW1401	0.000	
13	  C8	-9.508	206.512	118.509	C.3	1	NW1401	0.000	
14	  O8	-14.788	206.402	111.910	O.3	1	NW1401	0.000	
15	  C9	-10.323	205.216	118.776	C.3	1	NW1401	0.000	
16	  N9	-13.432	207.170	109.719	N.pl3	1	NW1401	0.000	
17	 C10	-11.638	205.314	117.929	C.3	1	NW1401	0.000	
18	 C11	-11.260	205.288	116.418	C.3	1	NW1401	0.000	
@<TRIPOS>BOND
1 1 5 1
2 2 3 ar
3 2 9 ar
4 3 4 1
5 5 11 1
6 5 18 1
7 3 6 ar
8 6 7 ar
9 7 16 1
10 7 8 ar
11 8 12 1
12 8 9 ar
13 9 10 1
14 1 10 1
15 12 14 1
16 11 13 1
17 13 15 1
18 15 17 1
19 17 18 1
@<TRIPOS>SUBSTRUCTURE
1	NW1401	1	GROUP	1 A	NW1
