# created with PyMOL 2.5.0
@<TRIPOS>MOLECULE
lig
24 27 1                 
SMALL
USER_CHARGES
@<TRIPOS>ATOM
1	  C1	-8.433	207.677	112.719	C.2	1	INR1298	0.000	
2	  C2	-8.881	207.550	114.045	C.2	1	INR1298	0.000	
3	  C3	-8.043	207.839	115.158	C.2	1	INR1298	0.000	
4	  C4	-6.709	208.263	114.880	C.2	1	INR1298	0.000	
5	  C5	-6.246	208.391	113.527	C.2	1	INR1298	0.000	
6	  C6	-7.108	208.096	112.424	C.2	1	INR1298	0.000	
7	  N7	-9.403	207.350	111.856	N.pl3	1	INR1298	0.000	
8	  C8	-10.299	207.091	113.882	C.2	1	INR1298	0.000	
9	  C9	-10.541	207.007	112.427	C.2	1	INR1298	0.000	
10	 O10	-11.058	206.864	114.802	O.2	1	INR1298	0.000	
11	 C11	-11.626	206.655	111.678	C.2	1	INR1298	0.000	
12	 C12	-11.657	206.639	110.197	C.2	1	INR1298	0.000	
13	 O13	-10.694	206.920	109.483	O.2	1	INR1298	0.000	
14	 N14	-12.838	206.285	109.790	N.pl3	1	INR1298	0.000	
15	 C15	-13.049	206.240	112.051	C.2	1	INR1298	0.000	
16	 C16	-13.675	206.050	110.804	C.2	1	INR1298	0.000	
17	 C17	-15.032	205.657	110.694	C.2	1	INR1298	0.000	
18	 C18	-15.776	205.456	111.888	C.2	1	INR1298	0.000	
19	 C19	-15.161	205.638	113.155	C.2	1	INR1298	0.000	
20	 C20	-13.787	206.032	113.252	C.2	1	INR1298	0.000	
21	 S21	-16.049	205.395	114.671	S.3	1	INR1298	0.000	
22	 O22	-15.480	204.223	115.304	O.3	1	INR1298	0.000	
23	 O23	-16.088	206.644	115.400	O.2	1	INR1298	0.000	
24	 O24	-17.425	205.032	114.244	O.2	1	INR1298	0.000	
@<TRIPOS>BOND
1 1 2 ar
2 1 6 ar
3 1 7 ar
4 2 3 ar
5 2 8 ar
6 3 4 ar
7 4 5 ar
8 5 6 ar
9 7 9 ar
10 8 9 ar
11 8 10 2
12 9 11 1
13 11 12 ar
14 11 15 ar
15 12 13 2
16 12 14 ar
17 14 16 ar
18 15 16 ar
19 15 20 ar
20 16 17 ar
21 17 18 ar
22 18 19 ar
23 19 21 1
24 19 20 ar
25 21 22 1
26 21 23 2
27 21 24 2
@<TRIPOS>SUBSTRUCTURE
1	INR1298	1	GROUP	1 A	INR
