# created with PyMOL 2.5.0
@<TRIPOS>MOLECULE
ZINC14884725
71 76 1                 
SMALL
USER_CHARGES
@<TRIPOS>ATOM
1	 H03	2.880	9.780	25.350	 H	1	UNK0	0.000	
2	 H05	4.900	8.850	25.750	 H	1	UNK0	0.000	
3	 H04	4.280	8.060	27.290	 H	1	UNK0	0.000	
4	 H10	8.990	9.000	23.970	 H	1	UNK0	0.000	
5	 H09	8.090	7.130	24.770	 H	1	UNK0	0.000	
6	 H08	6.240	5.560	25.080	 H	1	UNK0	0.000	
7	 H06	4.020	6.050	23.850	 H	1	UNK0	0.000	
8	 H19	0.150	5.960	26.020	 H	1	UNK0	0.000	
9	 H18	1.130	7.860	23.210	 H	1	UNK0	0.000	
10	 H13	7.330	10.470	20.480	 H	1	UNK0	0.000	
11	 H16	3.150	9.230	24.210	 H	1	UNK0	0.000	
12	 H15	2.890	9.080	22.450	 H	1	UNK0	0.000	
13	 H26	-0.010	8.850	27.760	 H	1	UNK0	0.000	
14	 H14	4.580	7.370	22.260	 H	1	UNK0	0.000	
15	 H07	6.250	5.660	23.300	 H	1	UNK0	0.000	
16	 H12	9.000	10.720	22.140	 H	1	UNK0	0.000	
17	 H35	-0.220	14.030	22.290	 H	1	UNK0	0.000	
18	 H22	5.920	10.530	24.540	 H	1	UNK0	0.000	
19	 H25	-1.520	8.750	26.810	 H	1	UNK0	0.000	
20	 H24	5.120	5.260	25.990	 H	1	UNK0	0.000	
21	 H23	5.200	11.020	22.990	 H	1	UNK0	0.000	
22	 H34	1.440	14.210	22.890	 H	1	UNK0	0.000	
23	 H29	-1.720	13.530	22.630	 H	1	UNK0	0.000	
24	 H28	-2.820	12.760	23.810	 H	1	UNK0	0.000	
25	 H27	-0.620	10.280	26.900	 H	1	UNK0	0.000	
26	 H30	-2.350	11.890	22.330	 H	1	UNK0	0.000	
27	 H33	-1.460	10.780	25.450	 H	1	UNK0	0.000	
28	 H32	-1.570	10.000	23.840	 H	1	UNK0	0.000	
29	 H31	0.810	9.690	23.730	 H	1	UNK0	0.000	
30	 H17	2.450	6.590	23.120	 H	1	UNK0	0.000	
31	 H21	4.220	10.160	24.200	 H	1	UNK0	0.000	
32	 H11	7.860	10.270	24.490	 H	1	UNK0	0.000	
33	 H36	0.070	14.800	23.860	 H	1	UNK0	0.000	
34	 H20	-0.110	4.740	24.400	 H	1	UNK0	0.000	
35	 H01	1.540	7.980	27.090	 H	1	UNK0	0.000	
36	 H02	2.740	9.620	27.140	 H	1	UNK0	0.000	
37	  C1	0.270	8.800	25.610	C.3	1	UNK0	0.000	
38	  C2	1.620	8.230	26.030	C.3	1	UNK0	0.000	
39	  C3	2.830	9.090	26.190	C.3	1	UNK0	0.000	
40	  C4	4.110	8.260	26.240	C.3	1	UNK0	0.000	
41	  C5	4.080	6.900	25.580	C.3	1	UNK0	0.000	
42	  C6	4.710	6.800	24.240	C.3	1	UNK0	0.000	
43	  C7	6.110	6.220	24.220	C.3	1	UNK0	0.000	
44	  C8	7.140	7.320	24.280	C.2	1	UNK0	0.000	
45	  C9	6.910	8.480	23.760	C.2	1	UNK0	0.000	
46	 C10	8.040	9.500	23.740	C.3	1	UNK0	0.000	
47	 C11	8.120	10.120	22.380	C.2	1	UNK0	0.000	
48	 C12	7.190	9.990	21.450	C.2	1	UNK0	0.000	
49	 C13	5.960	9.220	21.680	C.2	1	UNK0	0.000	
50	  O1	5.270	8.840	20.770	O.2	1	UNK0	0.000	
51	 C14	5.620	8.910	23.130	C.3	1	UNK0	0.000	
52	 C15	4.520	7.880	23.220	C.3	1	UNK0	0.000	
53	 C16	3.130	8.540	23.370	C.3	1	UNK0	0.000	
54	 C17	2.070	7.480	23.610	C.3	1	UNK0	0.000	
55	 C18	1.820	7.060	25.030	C.3	1	UNK0	0.000	
56	  O2	2.800	6.270	25.630	O.3	1	UNK0	0.000	
57	 C19	0.380	6.510	25.110	C.3	1	UNK0	0.000	
58	  O3	-0.410	7.720	24.940	O.3	1	UNK0	0.000	
59	  O4	0.140	5.590	24.040	O.3	1	UNK0	0.000	
60	 C20	5.210	10.250	23.760	C.3	1	UNK0	0.000	
61	  O5	4.890	6.070	26.450	O.3	1	UNK0	0.000	
62	 C21	-0.530	9.200	26.860	C.3	1	UNK0	0.000	
63	 C22	-2.010	12.580	23.100	C.3	1	UNK0	0.000	
64	 C23	-0.830	11.990	23.820	C.2	1	UNK0	0.000	
65	 C24	0.310	12.670	23.850	C.2	1	UNK0	0.000	
66	 C25	1.490	12.110	24.540	C.2	1	UNK0	0.000	
67	  O6	2.580	12.630	24.440	O.co2	1	UNK0	0.000	
68	  O7	1.300	11.000	25.290	O.3	1	UNK0	0.000	
69	 C26	0.410	10.010	24.690	C.3	1	UNK0	0.000	
70	 C27	-0.970	10.650	24.480	C.3	1	UNK0	0.000	
71	 C28	0.410	14.020	23.180	C.3	1	UNK0	0.000	
@<TRIPOS>BOND
1 37 38 1
2 37 58 1
3 37 62 1
4 37 69 1
5 35 38 1
6 38 39 1
7 38 55 1
8 1 39 1
9 36 39 1
10 39 40 1
11 2 40 1
12 3 40 1
13 40 41 1
14 41 42 1
15 41 56 1
16 41 61 1
17 7 42 1
18 42 43 1
19 42 52 1
20 6 43 1
21 15 43 1
22 43 44 1
23 5 44 1
24 44 45 2
25 45 46 1
26 45 51 1
27 4 46 1
28 32 46 1
29 46 47 1
30 16 47 1
31 47 48 2
32 10 48 1
33 48 49 1
34 49 50 2
35 49 51 1
36 51 52 1
37 51 60 1
38 14 52 1
39 52 53 1
40 11 53 1
41 12 53 1
42 53 54 1
43 9 54 1
44 30 54 1
45 54 55 1
46 55 56 1
47 55 57 1
48 8 57 1
49 57 58 1
50 57 59 1
51 34 59 1
52 18 60 1
53 21 60 1
54 31 60 1
55 20 61 1
56 13 62 1
57 19 62 1
58 25 62 1
59 23 63 1
60 24 63 1
61 26 63 1
62 63 64 1
63 64 65 2
64 64 70 1
65 65 66 1
66 65 71 1
67 66 67 2
68 66 68 1
69 68 69 1
70 29 69 1
71 69 70 1
72 27 70 1
73 28 70 1
74 17 71 1
75 22 71 1
76 33 71 1
@<TRIPOS>SUBSTRUCTURE
1	UNK0	1	GROUP	1 ****	UNK
