# created with PyMOL 2.5.0
@<TRIPOS>MOLECULE
ZINC14884725
71 76 1                 
SMALL
USER_CHARGES
@<TRIPOS>ATOM
1	 H03	3.050	10.500	26.770	 H	1	UNK0	0.000	
2	 H05	4.970	9.740	27.930	 H	1	UNK0	0.000	
3	 H04	4.030	9.380	29.350	 H	1	UNK0	0.000	
4	 H10	7.900	9.080	23.180	 H	1	UNK0	0.000	
5	 H09	7.710	8.000	25.220	 H	1	UNK0	0.000	
6	 H08	6.270	8.240	27.280	 H	1	UNK0	0.000	
7	 H06	4.170	6.550	26.230	 H	1	UNK0	0.000	
8	 H19	0.110	7.580	29.200	 H	1	UNK0	0.000	
9	 H18	0.410	8.050	25.730	 H	1	UNK0	0.000	
10	 H13	4.520	9.100	20.670	 H	1	UNK0	0.000	
11	 H16	2.150	9.730	25.390	 H	1	UNK0	0.000	
12	 H15	1.880	8.550	24.190	 H	1	UNK0	0.000	
13	 H26	0.020	10.450	30.000	 H	1	UNK0	0.000	
14	 H14	3.710	7.380	24.460	 H	1	UNK0	0.000	
15	 H07	6.280	6.630	26.600	 H	1	UNK0	0.000	
16	 H12	6.960	9.470	21.030	 H	1	UNK0	0.000	
17	 H35	0.910	13.180	22.830	 H	1	UNK0	0.000	
18	 H22	3.420	11.030	24.820	 H	1	UNK0	0.000	
19	 H25	-1.300	11.140	29.070	 H	1	UNK0	0.000	
20	 H24	3.900	6.510	28.920	 H	1	UNK0	0.000	
21	 H23	5.060	11.000	25.520	 H	1	UNK0	0.000	
22	 H34	0.360	14.660	23.630	 H	1	UNK0	0.000	
23	 H29	-2.380	12.530	23.240	 H	1	UNK0	0.000	
24	 H28	-3.250	12.990	24.700	 H	1	UNK0	0.000	
25	 H27	0.290	11.920	29.040	 H	1	UNK0	0.000	
26	 H30	-2.980	11.280	24.320	 H	1	UNK0	0.000	
27	 H33	-1.470	12.330	27.180	 H	1	UNK0	0.000	
28	 H32	-2.050	10.840	26.440	 H	1	UNK0	0.000	
29	 H31	0.280	10.280	25.740	 H	1	UNK0	0.000	
30	 H17	1.620	6.790	25.830	 H	1	UNK0	0.000	
31	 H21	4.800	11.400	23.830	 H	1	UNK0	0.000	
32	 H11	7.060	10.610	23.400	 H	1	UNK0	0.000	
33	 H36	-0.790	13.630	22.770	 H	1	UNK0	0.000	
34	 H20	-1.150	7.060	26.860	 H	1	UNK0	0.000	
35	 H01	1.670	9.370	29.190	 H	1	UNK0	0.000	
36	 H02	2.930	11.180	28.360	 H	1	UNK0	0.000	
37	  C1	0.180	10.110	27.870	C.3	1	UNK0	0.000	
38	  C2	1.610	9.510	28.100	C.3	1	UNK0	0.000	
39	  C3	2.890	10.240	27.800	C.3	1	UNK0	0.000	
40	  C4	4.010	9.340	28.260	C.3	1	UNK0	0.000	
41	  C5	3.860	7.890	27.790	C.3	1	UNK0	0.000	
42	  C6	4.400	7.610	26.370	C.3	1	UNK0	0.000	
43	  C7	5.920	7.650	26.430	C.3	1	UNK0	0.000	
44	  C8	6.640	8.180	25.250	C.2	1	UNK0	0.000	
45	  C9	6.080	8.940	24.300	C.2	1	UNK0	0.000	
46	 C10	6.910	9.540	23.210	C.3	1	UNK0	0.000	
47	 C11	6.280	9.380	21.860	C.2	1	UNK0	0.000	
48	 C12	4.970	9.190	21.640	C.2	1	UNK0	0.000	
49	 C13	4.060	9.190	22.810	C.2	1	UNK0	0.000	
50	  O1	2.890	9.420	22.550	O.2	1	UNK0	0.000	
51	 C14	4.610	9.270	24.250	C.3	1	UNK0	0.000	
52	 C15	3.770	8.260	25.100	C.3	1	UNK0	0.000	
53	 C16	2.300	8.680	25.180	C.3	1	UNK0	0.000	
54	 C17	1.430	7.840	26.060	C.3	1	UNK0	0.000	
55	 C18	1.510	8.070	27.570	C.3	1	UNK0	0.000	
56	  O2	2.600	7.300	28.100	O.3	1	UNK0	0.000	
57	 C19	0.070	7.750	28.120	C.3	1	UNK0	0.000	
58	  O3	-0.740	8.940	27.860	O.3	1	UNK0	0.000	
59	  O4	-0.580	6.650	27.540	O.3	1	UNK0	0.000	
60	 C20	4.460	10.750	24.640	C.3	1	UNK0	0.000	
61	  O5	4.610	7.120	28.670	O.3	1	UNK0	0.000	
62	 C21	-0.220	10.960	29.060	C.3	1	UNK0	0.000	
63	 C22	-2.530	12.280	24.290	C.3	1	UNK0	0.000	
64	 C23	-1.260	12.290	25.070	C.2	1	UNK0	0.000	
65	 C24	-0.110	12.860	24.670	C.2	1	UNK0	0.000	
66	 C25	1.090	12.870	25.570	C.2	1	UNK0	0.000	
67	  O6	2.000	13.670	25.400	O.co2	1	UNK0	0.000	
68	  O7	1.110	11.970	26.610	O.3	1	UNK0	0.000	
69	 C26	0.090	10.950	26.580	C.3	1	UNK0	0.000	
70	 C27	-1.270	11.600	26.400	C.3	1	UNK0	0.000	
71	 C28	0.100	13.620	23.410	C.3	1	UNK0	0.000	
@<TRIPOS>BOND
1 37 38 1
2 37 58 1
3 37 62 1
4 37 69 1
5 35 38 1
6 38 39 1
7 38 55 1
8 1 39 1
9 36 39 1
10 39 40 1
11 2 40 1
12 3 40 1
13 40 41 1
14 41 42 1
15 41 56 1
16 41 61 1
17 7 42 1
18 42 43 1
19 42 52 1
20 6 43 1
21 15 43 1
22 43 44 1
23 5 44 1
24 44 45 2
25 45 46 1
26 45 51 1
27 4 46 1
28 32 46 1
29 46 47 1
30 16 47 1
31 47 48 2
32 10 48 1
33 48 49 1
34 49 50 2
35 49 51 1
36 51 52 1
37 51 60 1
38 14 52 1
39 52 53 1
40 11 53 1
41 12 53 1
42 53 54 1
43 9 54 1
44 30 54 1
45 54 55 1
46 55 56 1
47 55 57 1
48 8 57 1
49 57 58 1
50 57 59 1
51 34 59 1
52 18 60 1
53 21 60 1
54 31 60 1
55 20 61 1
56 13 62 1
57 19 62 1
58 25 62 1
59 23 63 1
60 24 63 1
61 26 63 1
62 63 64 1
63 64 65 2
64 64 70 1
65 65 66 1
66 65 71 1
67 66 67 2
68 66 68 1
69 68 69 1
70 29 69 1
71 69 70 1
72 27 70 1
73 28 70 1
74 17 71 1
75 22 71 1
76 33 71 1
@<TRIPOS>SUBSTRUCTURE
1	UNK0	1	GROUP	1 ****	UNK
