# created with PyMOL 2.5.0
@<TRIPOS>MOLECULE
ZINC14884725
71 76 1                 
SMALL
USER_CHARGES
@<TRIPOS>ATOM
1	 H03	3.060	8.110	25.360	 H	1	UNK0	0.000	
2	 H05	5.120	6.810	25.210	 H	1	UNK0	0.000	
3	 H04	5.070	6.580	26.920	 H	1	UNK0	0.000	
4	 H10	6.360	6.150	20.730	 H	1	UNK0	0.000	
5	 H09	6.220	4.480	22.360	 H	1	UNK0	0.000	
6	 H08	5.210	3.480	24.280	 H	1	UNK0	0.000	
7	 H06	2.690	3.930	24.620	 H	1	UNK0	0.000	
8	 H19	1.250	5.450	28.880	 H	1	UNK0	0.000	
9	 H18	-0.030	6.250	25.660	 H	1	UNK0	0.000	
10	 H13	2.670	7.500	19.220	 H	1	UNK0	0.000	
11	 H16	1.640	7.500	24.420	 H	1	UNK0	0.000	
12	 H15	0.670	6.460	23.510	 H	1	UNK0	0.000	
13	 H26	2.450	9.490	28.680	 H	1	UNK0	0.000	
14	 H14	2.130	5.020	22.900	 H	1	UNK0	0.000	
15	 H07	4.030	3.260	23.030	 H	1	UNK0	0.000	
16	 H12	5.170	7.530	19.110	 H	1	UNK0	0.000	
17	 H35	-1.550	11.890	23.810	 H	1	UNK0	0.000	
18	 H22	4.190	8.680	22.300	 H	1	UNK0	0.000	
19	 H25	2.140	8.060	29.660	 H	1	UNK0	0.000	
20	 H24	4.150	3.780	26.930	 H	1	UNK0	0.000	
21	 H23	2.800	8.580	23.330	 H	1	UNK0	0.000	
22	 H34	0.040	12.690	23.820	 H	1	UNK0	0.000	
23	 H29	-3.150	10.510	26.660	 H	1	UNK0	0.000	
24	 H28	-2.770	12.070	25.960	 H	1	UNK0	0.000	
25	 H27	0.880	9.250	29.500	 H	1	UNK0	0.000	
26	 H30	-2.540	11.800	27.700	 H	1	UNK0	0.000	
27	 H33	-0.080	10.460	28.260	 H	1	UNK0	0.000	
28	 H32	-1.290	9.250	27.810	 H	1	UNK0	0.000	
29	 H31	0.090	8.460	25.930	 H	1	UNK0	0.000	
30	 H17	0.730	4.730	25.240	 H	1	UNK0	0.000	
31	 H21	4.410	8.100	23.920	 H	1	UNK0	0.000	
32	 H11	6.040	7.670	21.570	 H	1	UNK0	0.000	
33	 H36	-1.190	13.180	24.980	 H	1	UNK0	0.000	
34	 H20	-0.650	4.810	26.900	 H	1	UNK0	0.000	
35	 H01	2.950	6.940	28.080	 H	1	UNK0	0.000	
36	 H02	3.960	8.550	26.760	 H	1	UNK0	0.000	
37	  C1	1.190	8.040	27.730	C.3	1	UNK0	0.000	
38	  C2	2.370	7.190	27.180	C.3	1	UNK0	0.000	
39	  C3	3.450	7.720	26.270	C.3	1	UNK0	0.000	
40	  C4	4.440	6.590	26.040	C.3	1	UNK0	0.000	
41	  C5	3.830	5.180	25.860	C.3	1	UNK0	0.000	
42	  C6	3.410	4.740	24.450	C.3	1	UNK0	0.000	
43	  C7	4.510	4.030	23.650	C.3	1	UNK0	0.000	
44	  C8	5.280	4.890	22.720	C.2	1	UNK0	0.000	
45	  C9	4.820	6.040	22.230	C.2	1	UNK0	0.000	
46	 C10	5.560	6.780	21.150	C.3	1	UNK0	0.000	
47	 C11	4.670	7.200	20.010	C.2	1	UNK0	0.000	
48	 C12	3.320	7.210	20.040	C.2	1	UNK0	0.000	
49	 C13	2.650	6.800	21.300	C.2	1	UNK0	0.000	
50	  O1	1.440	6.940	21.360	O.2	1	UNK0	0.000	
51	 C14	3.480	6.630	22.580	C.3	1	UNK0	0.000	
52	 C15	2.650	5.730	23.550	C.3	1	UNK0	0.000	
53	 C16	1.490	6.450	24.240	C.3	1	UNK0	0.000	
54	 C17	0.940	5.780	25.480	C.3	1	UNK0	0.000	
55	 C18	1.750	5.850	26.780	C.3	1	UNK0	0.000	
56	  O2	2.800	4.870	26.800	O.3	1	UNK0	0.000	
57	 C19	0.720	5.730	27.970	C.3	1	UNK0	0.000	
58	  O3	0.160	7.070	28.180	O.3	1	UNK0	0.000	
59	  O4	-0.330	4.790	27.820	O.3	1	UNK0	0.000	
60	 C20	3.730	8.060	23.070	C.3	1	UNK0	0.000	
61	  O5	4.770	4.290	26.370	O.3	1	UNK0	0.000	
62	 C21	1.690	8.760	28.960	C.3	1	UNK0	0.000	
63	 C22	-2.450	11.350	26.710	C.3	1	UNK0	0.000	
64	 C23	-1.060	10.880	26.470	C.2	1	UNK0	0.000	
65	 C24	-0.300	11.300	25.440	C.2	1	UNK0	0.000	
66	 C25	1.110	10.810	25.240	C.2	1	UNK0	0.000	
67	  O6	1.800	11.230	24.320	O.co2	1	UNK0	0.000	
68	  O7	1.580	9.870	26.140	O.3	1	UNK0	0.000	
69	 C26	0.560	9.040	26.730	C.3	1	UNK0	0.000	
70	 C27	-0.500	9.890	27.420	C.3	1	UNK0	0.000	
71	 C28	-0.780	12.320	24.460	C.3	1	UNK0	0.000	
@<TRIPOS>BOND
1 37 38 1
2 37 58 1
3 37 62 1
4 37 69 1
5 35 38 1
6 38 39 1
7 38 55 1
8 1 39 1
9 36 39 1
10 39 40 1
11 2 40 1
12 3 40 1
13 40 41 1
14 41 42 1
15 41 56 1
16 41 61 1
17 7 42 1
18 42 43 1
19 42 52 1
20 6 43 1
21 15 43 1
22 43 44 1
23 5 44 1
24 44 45 2
25 45 46 1
26 45 51 1
27 4 46 1
28 32 46 1
29 46 47 1
30 16 47 1
31 47 48 2
32 10 48 1
33 48 49 1
34 49 50 2
35 49 51 1
36 51 52 1
37 51 60 1
38 14 52 1
39 52 53 1
40 11 53 1
41 12 53 1
42 53 54 1
43 9 54 1
44 30 54 1
45 54 55 1
46 55 56 1
47 55 57 1
48 8 57 1
49 57 58 1
50 57 59 1
51 34 59 1
52 18 60 1
53 21 60 1
54 31 60 1
55 20 61 1
56 13 62 1
57 19 62 1
58 25 62 1
59 23 63 1
60 24 63 1
61 26 63 1
62 63 64 1
63 64 65 2
64 64 70 1
65 65 66 1
66 65 71 1
67 66 67 2
68 66 68 1
69 68 69 1
70 29 69 1
71 69 70 1
72 27 70 1
73 28 70 1
74 17 71 1
75 22 71 1
76 33 71 1
@<TRIPOS>SUBSTRUCTURE
1	UNK0	1	GROUP	1 ****	UNK
