# created with PyMOL 2.5.0
@<TRIPOS>MOLECULE
ZINC14884725
71 76 1                 
SMALL
USER_CHARGES
@<TRIPOS>ATOM
1	 H03	4.920	10.720	26.560	 H	1	UNK0	0.000	
2	 H05	7.010	9.610	26.670	 H	1	UNK0	0.000	
3	 H04	6.350	8.460	27.760	 H	1	UNK0	0.000	
4	 H10	10.880	11.020	25.040	 H	1	UNK0	0.000	
5	 H09	10.230	8.800	25.130	 H	1	UNK0	0.000	
6	 H08	8.640	7.040	24.860	 H	1	UNK0	0.000	
7	 H06	6.480	7.530	23.620	 H	1	UNK0	0.000	
8	 H19	2.510	6.380	25.510	 H	1	UNK0	0.000	
9	 H18	3.180	9.410	23.620	 H	1	UNK0	0.000	
10	 H13	9.130	13.150	21.890	 H	1	UNK0	0.000	
11	 H16	4.970	10.670	24.760	 H	1	UNK0	0.000	
12	 H15	4.900	10.690	23.050	 H	1	UNK0	0.000	
13	 H26	2.250	10.410	28.470	 H	1	UNK0	0.000	
14	 H14	6.680	9.410	22.670	 H	1	UNK0	0.000	
15	 H07	8.670	7.750	23.300	 H	1	UNK0	0.000	
16	 H12	10.790	13.070	23.720	 H	1	UNK0	0.000	
17	 H35	1.330	14.120	23.050	 H	1	UNK0	0.000	
18	 H22	6.660	11.450	25.930	 H	1	UNK0	0.000	
19	 H25	2.160	8.650	28.650	 H	1	UNK0	0.000	
20	 H24	6.070	6.140	26.110	 H	1	UNK0	0.000	
21	 H23	7.610	12.690	25.150	 H	1	UNK0	0.000	
22	 H34	1.450	15.100	24.530	 H	1	UNK0	0.000	
23	 H29	-1.580	13.470	24.720	 H	1	UNK0	0.000	
24	 H28	-1.800	12.600	26.240	 H	1	UNK0	0.000	
25	 H27	0.730	9.520	28.160	 H	1	UNK0	0.000	
26	 H30	-1.850	11.720	24.700	 H	1	UNK0	0.000	
27	 H33	0.410	11.320	27.200	 H	1	UNK0	0.000	
28	 H32	-0.290	10.250	25.970	 H	1	UNK0	0.000	
29	 H31	1.790	10.240	24.700	 H	1	UNK0	0.000	
30	 H17	4.360	8.230	23.110	 H	1	UNK0	0.000	
31	 H21	6.050	12.310	24.500	 H	1	UNK0	0.000	
32	 H11	9.620	11.990	25.780	 H	1	UNK0	0.000	
33	 H36	-0.120	14.550	23.950	 H	1	UNK0	0.000	
34	 H20	1.400	6.560	23.860	 H	1	UNK0	0.000	
35	 H01	3.760	8.080	27.300	 H	1	UNK0	0.000	
36	 H02	4.760	9.930	28.070	 H	1	UNK0	0.000	
37	  C1	2.220	9.310	26.600	C.3	1	UNK0	0.000	
38	  C2	3.730	8.880	26.540	C.3	1	UNK0	0.000	
39	  C3	4.880	9.740	27.000	C.3	1	UNK0	0.000	
40	  C4	6.160	8.940	26.790	C.3	1	UNK0	0.000	
41	  C5	6.190	7.870	25.680	C.3	1	UNK0	0.000	
42	  C6	6.880	8.240	24.350	C.3	1	UNK0	0.000	
43	  C7	8.370	7.950	24.330	C.3	1	UNK0	0.000	
44	  C8	9.230	9.060	24.780	C.2	1	UNK0	0.000	
45	  C9	8.890	10.340	24.640	C.2	1	UNK0	0.000	
46	 C10	9.880	11.440	24.880	C.3	1	UNK0	0.000	
47	 C11	9.960	12.390	23.730	C.2	1	UNK0	0.000	
48	 C12	9.060	12.460	22.720	C.2	1	UNK0	0.000	
49	 C13	7.880	11.560	22.770	C.2	1	UNK0	0.000	
50	  O1	7.080	11.650	21.840	O.2	1	UNK0	0.000	
51	 C14	7.560	10.790	24.060	C.3	1	UNK0	0.000	
52	 C15	6.580	9.620	23.740	C.3	1	UNK0	0.000	
53	 C16	5.130	10.050	23.900	C.3	1	UNK0	0.000	
54	 C17	4.110	8.930	23.910	C.3	1	UNK0	0.000	
55	 C18	3.870	8.130	25.220	C.3	1	UNK0	0.000	
56	  O2	4.950	7.220	25.430	O.3	1	UNK0	0.000	
57	 C19	2.450	7.420	25.160	C.3	1	UNK0	0.000	
58	  O3	1.510	8.140	26.040	O.3	1	UNK0	0.000	
59	  O4	1.900	7.420	23.870	O.3	1	UNK0	0.000	
60	 C20	6.940	11.850	24.960	C.3	1	UNK0	0.000	
61	  O5	6.820	6.760	26.210	O.3	1	UNK0	0.000	
62	 C21	1.820	9.490	28.050	C.3	1	UNK0	0.000	
63	 C22	-1.360	12.540	25.240	C.3	1	UNK0	0.000	
64	 C23	0.100	12.260	25.360	C.2	1	UNK0	0.000	
65	 C24	1.100	13.010	24.850	C.2	1	UNK0	0.000	
66	 C25	2.550	12.700	25.120	C.2	1	UNK0	0.000	
67	  O6	3.430	13.500	24.860	O.co2	1	UNK0	0.000	
68	  O7	2.810	11.580	25.890	O.3	1	UNK0	0.000	
69	 C26	1.840	10.540	25.750	C.3	1	UNK0	0.000	
70	 C27	0.450	11.040	26.150	C.3	1	UNK0	0.000	
71	 C28	0.930	14.260	24.060	C.3	1	UNK0	0.000	
@<TRIPOS>BOND
1 37 38 1
2 37 58 1
3 37 62 1
4 37 69 1
5 35 38 1
6 38 39 1
7 38 55 1
8 1 39 1
9 36 39 1
10 39 40 1
11 2 40 1
12 3 40 1
13 40 41 1
14 41 42 1
15 41 56 1
16 41 61 1
17 7 42 1
18 42 43 1
19 42 52 1
20 6 43 1
21 15 43 1
22 43 44 1
23 5 44 1
24 44 45 2
25 45 46 1
26 45 51 1
27 4 46 1
28 32 46 1
29 46 47 1
30 16 47 1
31 47 48 2
32 10 48 1
33 48 49 1
34 49 50 2
35 49 51 1
36 51 52 1
37 51 60 1
38 14 52 1
39 52 53 1
40 11 53 1
41 12 53 1
42 53 54 1
43 9 54 1
44 30 54 1
45 54 55 1
46 55 56 1
47 55 57 1
48 8 57 1
49 57 58 1
50 57 59 1
51 34 59 1
52 18 60 1
53 21 60 1
54 31 60 1
55 20 61 1
56 13 62 1
57 19 62 1
58 25 62 1
59 23 63 1
60 24 63 1
61 26 63 1
62 63 64 1
63 64 65 2
64 64 70 1
65 65 66 1
66 65 71 1
67 66 67 2
68 66 68 1
69 68 69 1
70 29 69 1
71 69 70 1
72 27 70 1
73 28 70 1
74 17 71 1
75 22 71 1
76 33 71 1
@<TRIPOS>SUBSTRUCTURE
1	UNK0	1	GROUP	1 ****	UNK
