# created with PyMOL 2.5.0
@<TRIPOS>MOLECULE
ZINC14884725
71 76 1                 
SMALL
USER_CHARGES
@<TRIPOS>ATOM
1	 H03	3.390	11.690	26.420	 H	1	UNK0	0.000	
2	 H05	5.210	10.690	27.680	 H	1	UNK0	0.000	
3	 H04	4.100	9.600	28.420	 H	1	UNK0	0.000	
4	 H10	9.440	12.400	26.230	 H	1	UNK0	0.000	
5	 H09	8.940	10.150	26.370	 H	1	UNK0	0.000	
6	 H08	7.420	8.300	26.300	 H	1	UNK0	0.000	
7	 H06	5.520	8.500	24.580	 H	1	UNK0	0.000	
8	 H19	1.210	7.350	25.800	 H	1	UNK0	0.000	
9	 H18	2.360	9.760	23.430	 H	1	UNK0	0.000	
10	 H13	7.860	14.270	22.830	 H	1	UNK0	0.000	
11	 H16	3.540	11.590	24.620	 H	1	UNK0	0.000	
12	 H15	4.080	11.170	23.070	 H	1	UNK0	0.000	
13	 H26	-1.200	10.770	26.860	 H	1	UNK0	0.000	
14	 H14	5.980	10.300	23.570	 H	1	UNK0	0.000	
15	 H07	7.620	8.740	24.650	 H	1	UNK0	0.000	
16	 H12	9.400	14.320	24.760	 H	1	UNK0	0.000	
17	 H35	1.590	14.710	22.020	 H	1	UNK0	0.000	
18	 H22	4.520	13.150	25.320	 H	1	UNK0	0.000	
19	 H25	-0.140	9.800	27.880	 H	1	UNK0	0.000	
20	 H24	4.650	7.310	27.250	 H	1	UNK0	0.000	
21	 H23	5.220	12.430	26.790	 H	1	UNK0	0.000	
22	 H34	0.880	15.860	23.160	 H	1	UNK0	0.000	
23	 H29	-1.630	13.800	21.790	 H	1	UNK0	0.000	
24	 H28	-2.680	13.070	23.010	 H	1	UNK0	0.000	
25	 H27	0.180	11.540	27.670	 H	1	UNK0	0.000	
26	 H30	-1.720	12.040	21.930	 H	1	UNK0	0.000	
27	 H33	-1.320	12.170	25.330	 H	1	UNK0	0.000	
28	 H32	-1.140	10.960	24.050	 H	1	UNK0	0.000	
29	 H31	1.310	11.230	24.100	 H	1	UNK0	0.000	
30	 H17	3.770	8.770	23.540	 H	1	UNK0	0.000	
31	 H21	5.990	13.780	26.000	 H	1	UNK0	0.000	
32	 H11	8.030	13.310	26.790	 H	1	UNK0	0.000	
33	 H36	-0.130	15.110	21.930	 H	1	UNK0	0.000	
34	 H20	0.520	7.110	23.740	 H	1	UNK0	0.000	
35	 H01	1.920	9.250	27.320	 H	1	UNK0	0.000	
36	 H02	2.690	11.310	27.940	 H	1	UNK0	0.000	
37	  C1	0.730	10.320	25.950	C.3	1	UNK0	0.000	
38	  C2	2.140	9.910	26.460	C.3	1	UNK0	0.000	
39	  C3	3.130	10.860	27.060	C.3	1	UNK0	0.000	
40	  C4	4.360	10.060	27.460	C.3	1	UNK0	0.000	
41	  C5	4.780	8.940	26.490	C.3	1	UNK0	0.000	
42	  C6	5.720	9.290	25.310	C.3	1	UNK0	0.000	
43	  C7	7.200	9.090	25.580	C.3	1	UNK0	0.000	
44	  C8	7.960	10.310	25.930	C.2	1	UNK0	0.000	
45	  C9	7.550	11.550	25.670	C.2	1	UNK0	0.000	
46	 C10	8.430	12.730	25.950	C.3	1	UNK0	0.000	
47	 C11	8.560	13.630	24.760	C.2	1	UNK0	0.000	
48	 C12	7.730	13.640	23.700	C.2	1	UNK0	0.000	
49	 C13	6.600	12.680	23.690	C.2	1	UNK0	0.000	
50	  O1	5.880	12.680	22.700	O.2	1	UNK0	0.000	
51	 C14	6.250	11.880	24.950	C.3	1	UNK0	0.000	
52	 C15	5.500	10.580	24.510	C.3	1	UNK0	0.000	
53	 C16	4.050	10.800	24.100	C.3	1	UNK0	0.000	
54	 C17	3.210	9.540	24.070	C.3	1	UNK0	0.000	
55	 C18	2.690	8.950	25.410	C.3	1	UNK0	0.000	
56	  O2	3.690	8.150	26.040	O.3	1	UNK0	0.000	
57	 C19	1.350	8.160	25.090	C.3	1	UNK0	0.000	
58	  O3	0.230	9.110	25.230	O.3	1	UNK0	0.000	
59	  O4	1.350	7.630	23.800	O.3	1	UNK0	0.000	
60	 C20	5.450	12.840	25.810	C.3	1	UNK0	0.000	
61	  O5	5.380	7.950	27.260	O.3	1	UNK0	0.000	
62	 C21	-0.150	10.630	27.160	C.3	1	UNK0	0.000	
63	 C22	-1.710	12.980	22.500	C.3	1	UNK0	0.000	
64	 C23	-0.610	12.950	23.500	C.2	1	UNK0	0.000	
65	 C24	0.440	13.800	23.560	C.2	1	UNK0	0.000	
66	 C25	1.430	13.750	24.690	C.2	1	UNK0	0.000	
67	  O6	2.200	14.680	24.880	O.co2	1	UNK0	0.000	
68	  O7	1.340	12.680	25.550	O.3	1	UNK0	0.000	
69	 C26	0.730	11.520	24.980	C.3	1	UNK0	0.000	
70	 C27	-0.690	11.850	24.500	C.3	1	UNK0	0.000	
71	 C28	0.700	14.930	22.620	C.3	1	UNK0	0.000	
@<TRIPOS>BOND
1 37 38 1
2 37 58 1
3 37 62 1
4 37 69 1
5 35 38 1
6 38 39 1
7 38 55 1
8 1 39 1
9 36 39 1
10 39 40 1
11 2 40 1
12 3 40 1
13 40 41 1
14 41 42 1
15 41 56 1
16 41 61 1
17 7 42 1
18 42 43 1
19 42 52 1
20 6 43 1
21 15 43 1
22 43 44 1
23 5 44 1
24 44 45 2
25 45 46 1
26 45 51 1
27 4 46 1
28 32 46 1
29 46 47 1
30 16 47 1
31 47 48 2
32 10 48 1
33 48 49 1
34 49 50 2
35 49 51 1
36 51 52 1
37 51 60 1
38 14 52 1
39 52 53 1
40 11 53 1
41 12 53 1
42 53 54 1
43 9 54 1
44 30 54 1
45 54 55 1
46 55 56 1
47 55 57 1
48 8 57 1
49 57 58 1
50 57 59 1
51 34 59 1
52 18 60 1
53 21 60 1
54 31 60 1
55 20 61 1
56 13 62 1
57 19 62 1
58 25 62 1
59 23 63 1
60 24 63 1
61 26 63 1
62 63 64 1
63 64 65 2
64 64 70 1
65 65 66 1
66 65 71 1
67 66 67 2
68 66 68 1
69 68 69 1
70 29 69 1
71 69 70 1
72 27 70 1
73 28 70 1
74 17 71 1
75 22 71 1
76 33 71 1
@<TRIPOS>SUBSTRUCTURE
1	UNK0	1	GROUP	1 ****	UNK
