# created with PyMOL 2.5.0
@<TRIPOS>MOLECULE
ZINC14884725
71 76 1                 
SMALL
USER_CHARGES
@<TRIPOS>ATOM
1	 H03	3.340	8.960	25.760	 H	1	UNK0	0.000	
2	 H05	5.350	7.720	25.860	 H	1	UNK0	0.000	
3	 H04	4.520	6.380	26.580	 H	1	UNK0	0.000	
4	 H10	9.080	10.270	23.310	 H	1	UNK0	0.000	
5	 H09	8.670	8.020	23.730	 H	1	UNK0	0.000	
6	 H08	6.990	6.510	24.550	 H	1	UNK0	0.000	
7	 H06	5.140	6.390	22.430	 H	1	UNK0	0.000	
8	 H19	0.860	5.030	24.340	 H	1	UNK0	0.000	
9	 H18	1.400	8.100	22.600	 H	1	UNK0	0.000	
10	 H13	6.510	12.360	20.810	 H	1	UNK0	0.000	
11	 H16	3.180	9.220	23.970	 H	1	UNK0	0.000	
12	 H15	3.080	9.550	22.290	 H	1	UNK0	0.000	
13	 H26	0.320	6.520	27.230	 H	1	UNK0	0.000	
14	 H14	4.850	8.250	21.680	 H	1	UNK0	0.000	
15	 H07	7.220	6.210	22.840	 H	1	UNK0	0.000	
16	 H12	8.490	12.390	22.270	 H	1	UNK0	0.000	
17	 H35	0.370	13.490	23.620	 H	1	UNK0	0.000	
18	 H22	4.180	10.990	23.890	 H	1	UNK0	0.000	
19	 H25	-1.020	7.590	26.930	 H	1	UNK0	0.000	
20	 H24	4.390	4.550	24.430	 H	1	UNK0	0.000	
21	 H23	4.990	9.940	25.060	 H	1	UNK0	0.000	
22	 H34	0.060	13.920	25.310	 H	1	UNK0	0.000	
23	 H29	-2.860	12.530	24.690	 H	1	UNK0	0.000	
24	 H28	-3.330	11.100	25.610	 H	1	UNK0	0.000	
25	 H27	0.510	8.250	27.560	 H	1	UNK0	0.000	
26	 H30	-3.130	10.990	23.860	 H	1	UNK0	0.000	
27	 H33	-1.280	9.540	26.400	 H	1	UNK0	0.000	
28	 H32	-1.800	8.980	24.810	 H	1	UNK0	0.000	
29	 H31	0.470	9.240	23.920	 H	1	UNK0	0.000	
30	 H17	2.660	7.100	21.900	 H	1	UNK0	0.000	
31	 H21	5.800	11.370	24.420	 H	1	UNK0	0.000	
32	 H11	7.940	11.030	24.410	 H	1	UNK0	0.000	
33	 H36	-1.290	13.630	24.200	 H	1	UNK0	0.000	
34	 H20	-0.230	4.970	22.650	 H	1	UNK0	0.000	
35	 H01	2.020	6.300	25.990	 H	1	UNK0	0.000	
36	 H02	3.050	7.950	27.120	 H	1	UNK0	0.000	
37	  C1	0.570	7.730	25.460	C.3	1	UNK0	0.000	
38	  C2	2.040	7.220	25.390	C.3	1	UNK0	0.000	
39	  C3	3.210	7.920	26.030	C.3	1	UNK0	0.000	
40	  C4	4.460	7.100	25.760	C.3	1	UNK0	0.000	
41	  C5	4.510	6.350	24.420	C.3	1	UNK0	0.000	
42	  C6	5.300	7.050	23.290	C.3	1	UNK0	0.000	
43	  C7	6.800	6.920	23.560	C.3	1	UNK0	0.000	
44	  C8	7.620	8.150	23.520	C.2	1	UNK0	0.000	
45	  C9	7.140	9.380	23.330	C.2	1	UNK0	0.000	
46	 C10	8.040	10.580	23.420	C.3	1	UNK0	0.000	
47	 C11	7.750	11.610	22.380	C.2	1	UNK0	0.000	
48	 C12	6.680	11.630	21.580	C.2	1	UNK0	0.000	
49	 C13	5.660	10.560	21.760	C.2	1	UNK0	0.000	
50	  O1	4.730	10.560	20.970	O.2	1	UNK0	0.000	
51	 C14	5.700	9.680	23.030	C.3	1	UNK0	0.000	
52	 C15	4.810	8.430	22.760	C.3	1	UNK0	0.000	
53	 C16	3.350	8.770	23.000	C.3	1	UNK0	0.000	
54	 C17	2.370	7.650	22.800	C.3	1	UNK0	0.000	
55	 C18	2.210	6.670	23.970	C.3	1	UNK0	0.000	
56	  O2	3.300	5.760	23.970	O.3	1	UNK0	0.000	
57	 C19	0.790	5.990	23.840	C.3	1	UNK0	0.000	
58	  O3	-0.190	6.830	24.550	O.3	1	UNK0	0.000	
59	  O4	0.350	5.760	22.510	O.3	1	UNK0	0.000	
60	 C20	5.130	10.540	24.160	C.3	1	UNK0	0.000	
61	  O5	5.150	5.130	24.660	O.3	1	UNK0	0.000	
62	 C21	0.070	7.520	26.880	C.3	1	UNK0	0.000	
63	 C22	-2.730	11.440	24.760	C.3	1	UNK0	0.000	
64	 C23	-1.310	11.050	24.960	C.2	1	UNK0	0.000	
65	 C24	-0.240	11.860	24.850	C.2	1	UNK0	0.000	
66	 C25	1.150	11.380	25.170	C.2	1	UNK0	0.000	
67	  O6	2.100	12.160	25.150	O.co2	1	UNK0	0.000	
68	  O7	1.280	10.090	25.600	O.3	1	UNK0	0.000	
69	 C26	0.330	9.180	25.000	C.3	1	UNK0	0.000	
70	 C27	-1.090	9.620	25.330	C.3	1	UNK0	0.000	
71	 C28	-0.290	13.300	24.480	C.3	1	UNK0	0.000	
@<TRIPOS>BOND
1 37 38 1
2 37 58 1
3 37 62 1
4 37 69 1
5 35 38 1
6 38 39 1
7 38 55 1
8 1 39 1
9 36 39 1
10 39 40 1
11 2 40 1
12 3 40 1
13 40 41 1
14 41 42 1
15 41 56 1
16 41 61 1
17 7 42 1
18 42 43 1
19 42 52 1
20 6 43 1
21 15 43 1
22 43 44 1
23 5 44 1
24 44 45 2
25 45 46 1
26 45 51 1
27 4 46 1
28 32 46 1
29 46 47 1
30 16 47 1
31 47 48 2
32 10 48 1
33 48 49 1
34 49 50 2
35 49 51 1
36 51 52 1
37 51 60 1
38 14 52 1
39 52 53 1
40 11 53 1
41 12 53 1
42 53 54 1
43 9 54 1
44 30 54 1
45 54 55 1
46 55 56 1
47 55 57 1
48 8 57 1
49 57 58 1
50 57 59 1
51 34 59 1
52 18 60 1
53 21 60 1
54 31 60 1
55 20 61 1
56 13 62 1
57 19 62 1
58 25 62 1
59 23 63 1
60 24 63 1
61 26 63 1
62 63 64 1
63 64 65 2
64 64 70 1
65 65 66 1
66 65 71 1
67 66 67 2
68 66 68 1
69 68 69 1
70 29 69 1
71 69 70 1
72 27 70 1
73 28 70 1
74 17 71 1
75 22 71 1
76 33 71 1
@<TRIPOS>SUBSTRUCTURE
1	UNK0	1	GROUP	1 ****	UNK
