# created with PyMOL 2.5.0
@<TRIPOS>MOLECULE
ZINC14884725
71 76 1                 
SMALL
USER_CHARGES
@<TRIPOS>ATOM
1	 H03	3.930	10.670	25.740	 H	1	UNK0	0.000	
2	 H05	5.930	9.600	26.510	 H	1	UNK0	0.000	
3	 H04	5.000	8.390	27.330	 H	1	UNK0	0.000	
4	 H10	9.730	11.890	24.310	 H	1	UNK0	0.000	
5	 H09	9.400	9.590	24.590	 H	1	UNK0	0.000	
6	 H08	7.920	7.810	25.060	 H	1	UNK0	0.000	
7	 H06	5.900	7.750	23.260	 H	1	UNK0	0.000	
8	 H19	1.630	6.400	25.000	 H	1	UNK0	0.000	
9	 H18	2.380	9.060	22.760	 H	1	UNK0	0.000	
10	 H13	7.290	13.830	21.520	 H	1	UNK0	0.000	
11	 H16	3.730	10.720	23.950	 H	1	UNK0	0.000	
12	 H15	3.980	10.530	22.280	 H	1	UNK0	0.000	
13	 H26	0.930	10.280	27.480	 H	1	UNK0	0.000	
14	 H14	5.930	9.600	22.320	 H	1	UNK0	0.000	
15	 H07	8.030	7.880	23.340	 H	1	UNK0	0.000	
16	 H12	9.130	13.970	23.180	 H	1	UNK0	0.000	
17	 H35	-0.410	14.580	22.510	 H	1	UNK0	0.000	
18	 H22	6.270	12.930	24.930	 H	1	UNK0	0.000	
19	 H25	0.730	8.520	27.500	 H	1	UNK0	0.000	
20	 H24	5.290	6.220	25.640	 H	1	UNK0	0.000	
21	 H23	4.720	12.290	24.470	 H	1	UNK0	0.000	
22	 H34	1.350	14.510	22.500	 H	1	UNK0	0.000	
23	 H29	-2.030	13.460	22.800	 H	1	UNK0	0.000	
24	 H28	-2.700	12.240	23.880	 H	1	UNK0	0.000	
25	 H27	-0.530	9.520	26.820	 H	1	UNK0	0.000	
26	 H30	-1.980	11.750	22.330	 H	1	UNK0	0.000	
27	 H33	-0.890	11.140	25.610	 H	1	UNK0	0.000	
28	 H32	-0.960	10.180	24.120	 H	1	UNK0	0.000	
29	 H31	1.450	10.470	23.760	 H	1	UNK0	0.000	
30	 H17	3.790	8.070	22.490	 H	1	UNK0	0.000	
31	 H21	5.710	11.480	25.720	 H	1	UNK0	0.000	
32	 H11	8.430	12.600	25.270	 H	1	UNK0	0.000	
33	 H36	0.510	15.260	23.870	 H	1	UNK0	0.000	
34	 H20	0.930	6.030	23.180	 H	1	UNK0	0.000	
35	 H01	2.640	8.110	26.560	 H	1	UNK0	0.000	
36	 H02	3.520	10.080	27.310	 H	1	UNK0	0.000	
37	  C1	1.230	9.320	25.560	C.3	1	UNK0	0.000	
38	  C2	2.710	8.870	25.770	C.3	1	UNK0	0.000	
39	  C3	3.790	9.760	26.300	C.3	1	UNK0	0.000	
40	  C4	5.070	8.950	26.390	C.3	1	UNK0	0.000	
41	  C5	5.310	7.960	25.240	C.3	1	UNK0	0.000	
42	  C6	6.090	8.500	24.030	C.3	1	UNK0	0.000	
43	  C7	7.620	8.410	24.200	C.3	1	UNK0	0.000	
44	  C8	8.360	9.690	24.310	C.2	1	UNK0	0.000	
45	  C9	7.830	10.900	24.140	C.2	1	UNK0	0.000	
46	 C10	8.660	12.140	24.300	C.3	1	UNK0	0.000	
47	 C11	8.420	13.150	23.220	C.2	1	UNK0	0.000	
48	 C12	7.430	13.100	22.310	C.2	1	UNK0	0.000	
49	 C13	6.460	11.990	22.400	C.2	1	UNK0	0.000	
50	  O1	5.630	11.890	21.510	O.2	1	UNK0	0.000	
51	 C14	6.410	11.140	23.690	C.3	1	UNK0	0.000	
52	 C15	5.650	9.820	23.350	C.3	1	UNK0	0.000	
53	 C16	4.150	10.030	23.230	C.3	1	UNK0	0.000	
54	 C17	3.330	8.770	23.200	C.3	1	UNK0	0.000	
55	 C18	3.040	8.040	24.520	C.3	1	UNK0	0.000	
56	  O2	4.160	7.210	24.860	O.3	1	UNK0	0.000	
57	 C19	1.660	7.290	24.360	C.3	1	UNK0	0.000	
58	  O3	0.600	8.220	24.790	O.3	1	UNK0	0.000	
59	  O4	1.390	6.900	23.020	O.3	1	UNK0	0.000	
60	 C20	5.730	11.990	24.760	C.3	1	UNK0	0.000	
61	  O5	5.990	6.880	25.770	O.3	1	UNK0	0.000	
62	 C21	0.550	9.430	26.910	C.3	1	UNK0	0.000	
63	 C22	-1.880	12.440	23.180	C.3	1	UNK0	0.000	
64	 C23	-0.570	12.250	23.850	C.2	1	UNK0	0.000	
65	 C24	0.450	13.130	23.850	C.2	1	UNK0	0.000	
66	 C25	1.690	12.900	24.670	C.2	1	UNK0	0.000	
67	  O6	2.520	13.790	24.800	O.co2	1	UNK0	0.000	
68	  O7	1.780	11.710	25.350	O.3	1	UNK0	0.000	
69	 C26	1.050	10.630	24.760	C.3	1	UNK0	0.000	
70	 C27	-0.430	10.990	24.630	C.3	1	UNK0	0.000	
71	 C28	0.470	14.440	23.150	C.3	1	UNK0	0.000	
@<TRIPOS>BOND
1 37 38 1
2 37 58 1
3 37 62 1
4 37 69 1
5 35 38 1
6 38 39 1
7 38 55 1
8 1 39 1
9 36 39 1
10 39 40 1
11 2 40 1
12 3 40 1
13 40 41 1
14 41 42 1
15 41 56 1
16 41 61 1
17 7 42 1
18 42 43 1
19 42 52 1
20 6 43 1
21 15 43 1
22 43 44 1
23 5 44 1
24 44 45 2
25 45 46 1
26 45 51 1
27 4 46 1
28 32 46 1
29 46 47 1
30 16 47 1
31 47 48 2
32 10 48 1
33 48 49 1
34 49 50 2
35 49 51 1
36 51 52 1
37 51 60 1
38 14 52 1
39 52 53 1
40 11 53 1
41 12 53 1
42 53 54 1
43 9 54 1
44 30 54 1
45 54 55 1
46 55 56 1
47 55 57 1
48 8 57 1
49 57 58 1
50 57 59 1
51 34 59 1
52 18 60 1
53 21 60 1
54 31 60 1
55 20 61 1
56 13 62 1
57 19 62 1
58 25 62 1
59 23 63 1
60 24 63 1
61 26 63 1
62 63 64 1
63 64 65 2
64 64 70 1
65 65 66 1
66 65 71 1
67 66 67 2
68 66 68 1
69 68 69 1
70 29 69 1
71 69 70 1
72 27 70 1
73 28 70 1
74 17 71 1
75 22 71 1
76 33 71 1
@<TRIPOS>SUBSTRUCTURE
1	UNK0	1	GROUP	1 ****	UNK
