# created with PyMOL 2.5.0
@<TRIPOS>MOLECULE
ZINC14884725
71 76 1                 
SMALL
USER_CHARGES
@<TRIPOS>ATOM
1	 H03	2.930	11.280	26.480	 H	1	UNK0	0.000	
2	 H05	4.980	10.320	27.380	 H	1	UNK0	0.000	
3	 H04	4.180	10.060	28.890	 H	1	UNK0	0.000	
4	 H10	8.240	10.100	24.230	 H	1	UNK0	0.000	
5	 H09	7.570	8.330	25.570	 H	1	UNK0	0.000	
6	 H08	5.900	7.050	26.710	 H	1	UNK0	0.000	
7	 H06	3.490	7.180	25.850	 H	1	UNK0	0.000	
8	 H19	0.030	8.420	28.900	 H	1	UNK0	0.000	
9	 H18	0.330	9.080	25.430	 H	1	UNK0	0.000	
10	 H13	5.690	10.770	20.960	 H	1	UNK0	0.000	
11	 H16	2.200	10.570	24.980	 H	1	UNK0	0.000	
12	 H15	1.920	9.380	23.820	 H	1	UNK0	0.000	
13	 H26	0.030	11.310	29.820	 H	1	UNK0	0.000	
14	 H14	3.700	8.250	24.030	 H	1	UNK0	0.000	
15	 H07	5.510	6.800	25.060	 H	1	UNK0	0.000	
16	 H12	7.860	11.220	22.100	 H	1	UNK0	0.000	
17	 H35	-0.790	14.550	22.600	 H	1	UNK0	0.000	
18	 H22	5.230	12.190	24.300	 H	1	UNK0	0.000	
19	 H25	-1.120	12.230	28.880	 H	1	UNK0	0.000	
20	 H24	3.690	7.350	28.800	 H	1	UNK0	0.000	
21	 H23	3.550	11.850	24.540	 H	1	UNK0	0.000	
22	 H34	0.930	14.200	22.680	 H	1	UNK0	0.000	
23	 H29	-2.960	12.340	24.010	 H	1	UNK0	0.000	
24	 H28	-2.520	13.900	23.300	 H	1	UNK0	0.000	
25	 H27	0.570	12.750	28.940	 H	1	UNK0	0.000	
26	 H30	-3.270	13.860	24.900	 H	1	UNK0	0.000	
27	 H33	-1.550	13.090	27.000	 H	1	UNK0	0.000	
28	 H32	-1.990	11.620	26.110	 H	1	UNK0	0.000	
29	 H31	0.350	11.190	25.550	 H	1	UNK0	0.000	
30	 H17	1.400	7.710	25.490	 H	1	UNK0	0.000	
31	 H21	4.750	11.620	25.860	 H	1	UNK0	0.000	
32	 H11	7.290	11.510	24.660	 H	1	UNK0	0.000	
33	 H36	0.280	15.630	23.500	 H	1	UNK0	0.000	
34	 H20	-0.730	7.780	26.270	 H	1	UNK0	0.000	
35	 H01	1.710	10.160	28.950	 H	1	UNK0	0.000	
36	 H02	3.040	11.890	28.090	 H	1	UNK0	0.000	
37	  C1	0.220	11.010	27.680	C.3	1	UNK0	0.000	
38	  C2	1.610	10.320	27.870	C.3	1	UNK0	0.000	
39	  C3	2.910	10.980	27.500	C.3	1	UNK0	0.000	
40	  C4	4.030	10.000	27.810	C.3	1	UNK0	0.000	
41	  C5	3.750	8.530	27.440	C.3	1	UNK0	0.000	
42	  C6	4.100	8.090	26.000	C.3	1	UNK0	0.000	
43	  C7	5.530	7.560	25.840	C.3	1	UNK0	0.000	
44	  C8	6.510	8.580	25.400	C.2	1	UNK0	0.000	
45	  C9	6.200	9.680	24.730	C.2	1	UNK0	0.000	
46	 C10	7.240	10.570	24.120	C.3	1	UNK0	0.000	
47	 C11	7.020	10.820	22.670	C.2	1	UNK0	0.000	
48	 C12	5.850	10.610	22.010	C.2	1	UNK0	0.000	
49	 C13	4.690	10.110	22.810	C.2	1	UNK0	0.000	
50	  O1	3.620	10.010	22.220	O.2	1	UNK0	0.000	
51	 C14	4.780	10.060	24.340	C.3	1	UNK0	0.000	
52	 C15	3.730	8.990	24.830	C.3	1	UNK0	0.000	
53	 C16	2.290	9.520	24.840	C.3	1	UNK0	0.000	
54	 C17	1.330	8.760	25.740	C.3	1	UNK0	0.000	
55	 C18	1.420	8.920	27.270	C.3	1	UNK0	0.000	
56	  O2	2.450	8.090	27.810	O.3	1	UNK0	0.000	
57	 C19	-0.030	8.650	27.840	C.3	1	UNK0	0.000	
58	  O3	-0.770	9.900	27.680	O.3	1	UNK0	0.000	
59	  O4	-0.730	7.590	27.230	O.3	1	UNK0	0.000	
60	 C20	4.570	11.480	24.790	C.3	1	UNK0	0.000	
61	  O5	4.450	7.750	28.340	O.3	1	UNK0	0.000	
62	 C21	-0.080	11.880	28.890	C.3	1	UNK0	0.000	
63	 C22	-2.570	13.340	24.230	C.3	1	UNK0	0.000	
64	 C23	-1.250	13.230	24.920	C.2	1	UNK0	0.000	
65	 C24	-0.100	13.780	24.500	C.2	1	UNK0	0.000	
66	 C25	1.150	13.720	25.330	C.2	1	UNK0	0.000	
67	  O6	2.110	14.430	25.080	O.co2	1	UNK0	0.000	
68	  O7	1.120	12.890	26.430	O.3	1	UNK0	0.000	
69	 C26	0.130	11.850	26.390	C.3	1	UNK0	0.000	
70	 C27	-1.260	12.430	26.180	C.3	1	UNK0	0.000	
71	 C28	0.080	14.590	23.250	C.3	1	UNK0	0.000	
@<TRIPOS>BOND
1 37 38 1
2 37 58 1
3 37 62 1
4 37 69 1
5 35 38 1
6 38 39 1
7 38 55 1
8 1 39 1
9 36 39 1
10 39 40 1
11 2 40 1
12 3 40 1
13 40 41 1
14 41 42 1
15 41 56 1
16 41 61 1
17 7 42 1
18 42 43 1
19 42 52 1
20 6 43 1
21 15 43 1
22 43 44 1
23 5 44 1
24 44 45 2
25 45 46 1
26 45 51 1
27 4 46 1
28 32 46 1
29 46 47 1
30 16 47 1
31 47 48 2
32 10 48 1
33 48 49 1
34 49 50 2
35 49 51 1
36 51 52 1
37 51 60 1
38 14 52 1
39 52 53 1
40 11 53 1
41 12 53 1
42 53 54 1
43 9 54 1
44 30 54 1
45 54 55 1
46 55 56 1
47 55 57 1
48 8 57 1
49 57 58 1
50 57 59 1
51 34 59 1
52 18 60 1
53 21 60 1
54 31 60 1
55 20 61 1
56 13 62 1
57 19 62 1
58 25 62 1
59 23 63 1
60 24 63 1
61 26 63 1
62 63 64 1
63 64 65 2
64 64 70 1
65 65 66 1
66 65 71 1
67 66 67 2
68 66 68 1
69 68 69 1
70 29 69 1
71 69 70 1
72 27 70 1
73 28 70 1
74 17 71 1
75 22 71 1
76 33 71 1
@<TRIPOS>SUBSTRUCTURE
1	UNK0	1	GROUP	1 ****	UNK
