# created with PyMOL 2.5.0
@<TRIPOS>MOLECULE
ZINC14884725
71 76 1                 
SMALL
USER_CHARGES
@<TRIPOS>ATOM
1	 H03	2.900	9.580	25.690	 H	1	UNK0	0.000	
2	 H05	4.870	8.390	25.680	 H	1	UNK0	0.000	
3	 H04	4.380	7.620	27.280	 H	1	UNK0	0.000	
4	 H10	8.980	8.660	23.750	 H	1	UNK0	0.000	
5	 H09	8.090	6.670	24.430	 H	1	UNK0	0.000	
6	 H08	6.270	5.130	24.660	 H	1	UNK0	0.000	
7	 H06	4.030	5.730	23.600	 H	1	UNK0	0.000	
8	 H19	0.300	5.760	26.210	 H	1	UNK0	0.000	
9	 H18	1.140	7.770	23.350	 H	1	UNK0	0.000	
10	 H13	7.140	10.540	20.520	 H	1	UNK0	0.000	
11	 H16	3.280	8.960	24.290	 H	1	UNK0	0.000	
12	 H15	2.880	8.990	22.600	 H	1	UNK0	0.000	
13	 H26	-0.170	8.400	27.970	 H	1	UNK0	0.000	
14	 H14	4.390	7.290	22.190	 H	1	UNK0	0.000	
15	 H07	6.190	5.510	22.970	 H	1	UNK0	0.000	
16	 H12	8.930	10.620	22.240	 H	1	UNK0	0.000	
17	 H35	0.100	13.730	22.240	 H	1	UNK0	0.000	
18	 H22	6.150	10.640	24.250	 H	1	UNK0	0.000	
19	 H25	-1.450	9.180	27.060	 H	1	UNK0	0.000	
20	 H24	4.750	4.810	25.890	 H	1	UNK0	0.000	
21	 H23	4.880	10.900	23.100	 H	1	UNK0	0.000	
22	 H34	1.610	13.930	23.100	 H	1	UNK0	0.000	
23	 H29	-1.860	13.120	22.520	 H	1	UNK0	0.000	
24	 H28	-2.750	12.670	23.960	 H	1	UNK0	0.000	
25	 H27	-0.000	10.090	27.450	 H	1	UNK0	0.000	
26	 H30	-2.570	11.500	22.620	 H	1	UNK0	0.000	
27	 H33	-1.570	10.660	25.520	 H	1	UNK0	0.000	
28	 H32	-1.580	9.750	24.020	 H	1	UNK0	0.000	
29	 H31	0.840	9.570	23.990	 H	1	UNK0	0.000	
30	 H17	2.260	6.480	23.060	 H	1	UNK0	0.000	
31	 H21	4.560	10.170	24.660	 H	1	UNK0	0.000	
32	 H11	8.020	9.910	24.510	 H	1	UNK0	0.000	
33	 H36	0.120	14.510	23.850	 H	1	UNK0	0.000	
34	 H20	-0.370	4.880	24.340	 H	1	UNK0	0.000	
35	 H01	1.580	7.480	27.200	 H	1	UNK0	0.000	
36	 H02	2.940	9.280	27.380	 H	1	UNK0	0.000	
37	  C1	0.310	8.640	25.880	C.3	1	UNK0	0.000	
38	  C2	1.700	8.000	26.240	C.3	1	UNK0	0.000	
39	  C3	2.920	8.790	26.410	C.3	1	UNK0	0.000	
40	  C4	4.130	7.860	26.250	C.3	1	UNK0	0.000	
41	  C5	4.110	6.520	25.550	C.3	1	UNK0	0.000	
42	  C6	4.650	6.480	24.090	C.3	1	UNK0	0.000	
43	  C7	6.070	5.950	23.960	C.3	1	UNK0	0.000	
44	  C8	7.100	6.990	24.120	C.2	1	UNK0	0.000	
45	  C9	6.900	8.260	23.750	C.2	1	UNK0	0.000	
46	 C10	8.040	9.210	23.670	C.3	1	UNK0	0.000	
47	 C11	8.060	10.000	22.390	C.2	1	UNK0	0.000	
48	 C12	7.100	10.000	21.450	C.2	1	UNK0	0.000	
49	 C13	5.910	9.150	21.700	C.2	1	UNK0	0.000	
50	  O1	5.100	9.070	20.790	O.2	1	UNK0	0.000	
51	 C14	5.600	8.790	23.170	C.3	1	UNK0	0.000	
52	 C15	4.470	7.720	23.190	C.3	1	UNK0	0.000	
53	 C16	3.150	8.350	23.440	C.3	1	UNK0	0.000	
54	 C17	2.070	7.340	23.720	C.3	1	UNK0	0.000	
55	 C18	1.880	6.900	25.200	C.3	1	UNK0	0.000	
56	  O2	2.850	5.950	25.640	O.3	1	UNK0	0.000	
57	 C19	0.450	6.330	25.290	C.3	1	UNK0	0.000	
58	  O3	-0.450	7.500	25.290	O.3	1	UNK0	0.000	
59	  O4	0.390	5.470	24.220	O.3	1	UNK0	0.000	
60	 C20	5.260	10.170	23.820	C.3	1	UNK0	0.000	
61	  O5	4.870	5.650	26.360	O.3	1	UNK0	0.000	
62	 C21	-0.370	9.100	27.160	C.3	1	UNK0	0.000	
63	 C22	-2.080	12.290	23.200	C.3	1	UNK0	0.000	
64	 C23	-0.850	11.750	23.860	C.2	1	UNK0	0.000	
65	 C24	0.320	12.410	23.880	C.2	1	UNK0	0.000	
66	 C25	1.490	11.920	24.670	C.2	1	UNK0	0.000	
67	  O6	2.530	12.560	24.730	O.co2	1	UNK0	0.000	
68	  O7	1.180	10.900	25.530	O.3	1	UNK0	0.000	
69	 C26	0.380	9.870	24.930	C.3	1	UNK0	0.000	
70	 C27	-1.000	10.460	24.610	C.3	1	UNK0	0.000	
71	 C28	0.550	13.720	23.230	C.3	1	UNK0	0.000	
@<TRIPOS>BOND
1 37 38 1
2 37 58 1
3 37 62 1
4 37 69 1
5 35 38 1
6 38 39 1
7 38 55 1
8 1 39 1
9 36 39 1
10 39 40 1
11 2 40 1
12 3 40 1
13 40 41 1
14 41 42 1
15 41 56 1
16 41 61 1
17 7 42 1
18 42 43 1
19 42 52 1
20 6 43 1
21 15 43 1
22 43 44 1
23 5 44 1
24 44 45 2
25 45 46 1
26 45 51 1
27 4 46 1
28 32 46 1
29 46 47 1
30 16 47 1
31 47 48 2
32 10 48 1
33 48 49 1
34 49 50 2
35 49 51 1
36 51 52 1
37 51 60 1
38 14 52 1
39 52 53 1
40 11 53 1
41 12 53 1
42 53 54 1
43 9 54 1
44 30 54 1
45 54 55 1
46 55 56 1
47 55 57 1
48 8 57 1
49 57 58 1
50 57 59 1
51 34 59 1
52 18 60 1
53 21 60 1
54 31 60 1
55 20 61 1
56 13 62 1
57 19 62 1
58 25 62 1
59 23 63 1
60 24 63 1
61 26 63 1
62 63 64 1
63 64 65 2
64 64 70 1
65 65 66 1
66 65 71 1
67 66 67 2
68 66 68 1
69 68 69 1
70 29 69 1
71 69 70 1
72 27 70 1
73 28 70 1
74 17 71 1
75 22 71 1
76 33 71 1
@<TRIPOS>SUBSTRUCTURE
1	UNK0	1	GROUP	1 ****	UNK
