# created with PyMOL 2.5.0
@<TRIPOS>MOLECULE
ZINC14884725
71 76 1                 
SMALL
USER_CHARGES
@<TRIPOS>ATOM
1	 H03	3.530	10.240	27.820	 H	1	UNK0	0.000	
2	 H05	4.900	8.640	28.890	 H	1	UNK0	0.000	
3	 H04	3.520	7.850	29.560	 H	1	UNK0	0.000	
4	 H10	9.480	8.530	24.750	 H	1	UNK0	0.000	
5	 H09	8.610	7.160	26.880	 H	1	UNK0	0.000	
6	 H08	6.410	7.450	28.270	 H	1	UNK0	0.000	
7	 H06	5.020	6.350	25.910	 H	1	UNK0	0.000	
8	 H19	0.120	6.850	26.910	 H	1	UNK0	0.000	
9	 H18	1.920	8.810	24.610	 H	1	UNK0	0.000	
10	 H13	7.580	11.770	23.250	 H	1	UNK0	0.000	
11	 H16	3.690	9.880	26.070	 H	1	UNK0	0.000	
12	 H15	3.870	9.730	24.390	 H	1	UNK0	0.000	
13	 H26	-1.170	10.640	27.990	 H	1	UNK0	0.000	
14	 H14	5.240	7.840	24.510	 H	1	UNK0	0.000	
15	 H07	6.620	5.970	27.370	 H	1	UNK0	0.000	
16	 H12	9.710	11.070	24.320	 H	1	UNK0	0.000	
17	 H35	1.180	14.580	23.170	 H	1	UNK0	0.000	
18	 H22	6.930	11.100	26.680	 H	1	UNK0	0.000	
19	 H25	0.350	10.980	28.840	 H	1	UNK0	0.000	
20	 H24	4.040	5.290	27.630	 H	1	UNK0	0.000	
21	 H23	5.250	11.120	26.240	 H	1	UNK0	0.000	
22	 H34	2.240	15.130	24.470	 H	1	UNK0	0.000	
23	 H29	-1.690	13.940	24.510	 H	1	UNK0	0.000	
24	 H28	-1.610	12.390	23.640	 H	1	UNK0	0.000	
25	 H27	-0.430	9.390	28.960	 H	1	UNK0	0.000	
26	 H30	-0.650	13.740	23.080	 H	1	UNK0	0.000	
27	 H33	-0.680	12.250	26.760	 H	1	UNK0	0.000	
28	 H32	-1.090	11.120	25.460	 H	1	UNK0	0.000	
29	 H31	1.290	10.500	25.220	 H	1	UNK0	0.000	
30	 H17	2.920	7.380	24.590	 H	1	UNK0	0.000	
31	 H21	5.800	10.010	27.500	 H	1	UNK0	0.000	
32	 H11	9.550	9.520	26.200	 H	1	UNK0	0.000	
33	 H36	2.770	13.840	23.370	 H	1	UNK0	0.000	
34	 H20	0.550	7.620	24.230	 H	1	UNK0	0.000	
35	 H01	1.340	8.280	28.390	 H	1	UNK0	0.000	
36	 H02	2.650	9.870	29.250	 H	1	UNK0	0.000	
37	  C1	0.580	9.740	27.090	C.3	1	UNK0	0.000	
38	  C2	1.790	8.880	27.590	C.3	1	UNK0	0.000	
39	  C3	2.990	9.440	28.300	C.3	1	UNK0	0.000	
40	  C4	3.910	8.270	28.620	C.3	1	UNK0	0.000	
41	  C5	3.990	7.140	27.570	C.3	1	UNK0	0.000	
42	  C6	5.130	7.260	26.530	C.3	1	UNK0	0.000	
43	  C7	6.460	7.050	27.260	C.3	1	UNK0	0.000	
44	  C8	7.660	7.610	26.610	C.2	1	UNK0	0.000	
45	  C9	7.640	8.680	25.820	C.2	1	UNK0	0.000	
46	 C10	8.930	9.280	25.340	C.3	1	UNK0	0.000	
47	 C11	8.800	10.510	24.500	C.2	1	UNK0	0.000	
48	 C12	7.670	10.930	23.920	C.2	1	UNK0	0.000	
49	 C13	6.470	10.090	24.140	C.2	1	UNK0	0.000	
50	  O1	5.580	10.180	23.310	O.2	1	UNK0	0.000	
51	 C14	6.330	9.380	25.500	C.3	1	UNK0	0.000	
52	 C15	5.140	8.380	25.460	C.3	1	UNK0	0.000	
53	 C16	3.840	9.150	25.310	C.3	1	UNK0	0.000	
54	 C17	2.650	8.260	25.180	C.3	1	UNK0	0.000	
55	 C18	2.010	7.830	26.490	C.3	1	UNK0	0.000	
56	  O2	2.740	6.740	27.030	O.3	1	UNK0	0.000	
57	 C19	0.500	7.530	26.160	C.3	1	UNK0	0.000	
58	  O3	-0.260	8.790	26.300	O.3	1	UNK0	0.000	
59	  O4	0.260	6.960	24.890	O.3	1	UNK0	0.000	
60	 C20	6.060	10.450	26.540	C.3	1	UNK0	0.000	
61	  O5	4.250	5.970	28.300	O.3	1	UNK0	0.000	
62	 C21	-0.210	10.220	28.290	C.3	1	UNK0	0.000	
63	 C22	-1.020	13.250	23.980	C.3	1	UNK0	0.000	
64	 C23	0.080	12.800	24.880	C.2	1	UNK0	0.000	
65	 C24	1.360	13.220	24.840	C.2	1	UNK0	0.000	
66	 C25	2.380	12.740	25.830	C.2	1	UNK0	0.000	
67	  O6	3.490	13.240	25.860	O.co2	1	UNK0	0.000	
68	  O7	1.980	11.740	26.700	O.3	1	UNK0	0.000	
69	 C26	0.940	10.910	26.170	C.3	1	UNK0	0.000	
70	 C27	-0.300	11.750	25.870	C.3	1	UNK0	0.000	
71	 C28	1.910	14.250	23.910	C.3	1	UNK0	0.000	
@<TRIPOS>BOND
1 37 38 1
2 37 58 1
3 37 62 1
4 37 69 1
5 35 38 1
6 38 39 1
7 38 55 1
8 1 39 1
9 36 39 1
10 39 40 1
11 2 40 1
12 3 40 1
13 40 41 1
14 41 42 1
15 41 56 1
16 41 61 1
17 7 42 1
18 42 43 1
19 42 52 1
20 6 43 1
21 15 43 1
22 43 44 1
23 5 44 1
24 44 45 2
25 45 46 1
26 45 51 1
27 4 46 1
28 32 46 1
29 46 47 1
30 16 47 1
31 47 48 2
32 10 48 1
33 48 49 1
34 49 50 2
35 49 51 1
36 51 52 1
37 51 60 1
38 14 52 1
39 52 53 1
40 11 53 1
41 12 53 1
42 53 54 1
43 9 54 1
44 30 54 1
45 54 55 1
46 55 56 1
47 55 57 1
48 8 57 1
49 57 58 1
50 57 59 1
51 34 59 1
52 18 60 1
53 21 60 1
54 31 60 1
55 20 61 1
56 13 62 1
57 19 62 1
58 25 62 1
59 23 63 1
60 24 63 1
61 26 63 1
62 63 64 1
63 64 65 2
64 64 70 1
65 65 66 1
66 65 71 1
67 66 67 2
68 66 68 1
69 68 69 1
70 29 69 1
71 69 70 1
72 27 70 1
73 28 70 1
74 17 71 1
75 22 71 1
76 33 71 1
@<TRIPOS>SUBSTRUCTURE
1	UNK0	1	GROUP	1 ****	UNK
