# created with PyMOL 2.5.0
@<TRIPOS>MOLECULE
ZINC14884725
71 76 1                 
SMALL
USER_CHARGES
@<TRIPOS>ATOM
1	 H03	4.030	8.870	25.170	 H	1	UNK0	0.000	
2	 H05	5.960	7.390	25.330	 H	1	UNK0	0.000	
3	 H04	5.850	7.470	27.040	 H	1	UNK0	0.000	
4	 H10	8.140	5.890	21.830	 H	1	UNK0	0.000	
5	 H09	7.570	4.540	23.660	 H	1	UNK0	0.000	
6	 H08	6.030	3.760	25.310	 H	1	UNK0	0.000	
7	 H06	3.590	4.400	25.130	 H	1	UNK0	0.000	
8	 H19	1.560	6.790	28.660	 H	1	UNK0	0.000	
9	 H18	0.950	7.030	25.160	 H	1	UNK0	0.000	
10	 H13	5.010	6.630	19.140	 H	1	UNK0	0.000	
11	 H16	2.980	7.880	24.090	 H	1	UNK0	0.000	
12	 H15	2.010	6.830	23.170	 H	1	UNK0	0.000	
13	 H26	2.980	10.540	28.310	 H	1	UNK0	0.000	
14	 H14	3.350	5.110	23.130	 H	1	UNK0	0.000	
15	 H07	5.160	3.450	23.840	 H	1	UNK0	0.000	
16	 H12	7.410	6.880	19.710	 H	1	UNK0	0.000	
17	 H35	1.950	13.290	22.680	 H	1	UNK0	0.000	
18	 H22	5.650	8.500	22.070	 H	1	UNK0	0.000	
19	 H25	2.230	9.240	29.250	 H	1	UNK0	0.000	
20	 H24	4.750	4.820	27.630	 H	1	UNK0	0.000	
21	 H23	3.980	8.530	22.550	 H	1	UNK0	0.000	
22	 H34	1.860	14.430	24.030	 H	1	UNK0	0.000	
23	 H29	-1.060	13.610	24.620	 H	1	UNK0	0.000	
24	 H28	-1.700	12.500	25.820	 H	1	UNK0	0.000	
25	 H27	1.230	10.530	28.630	 H	1	UNK0	0.000	
26	 H30	-1.680	12.040	24.100	 H	1	UNK0	0.000	
27	 H33	0.170	11.210	27.060	 H	1	UNK0	0.000	
28	 H32	-0.530	10.110	25.890	 H	1	UNK0	0.000	
29	 H31	1.570	9.430	25.030	 H	1	UNK0	0.000	
30	 H17	1.640	5.430	25.180	 H	1	UNK0	0.000	
31	 H21	5.270	8.410	23.760	 H	1	UNK0	0.000	
32	 H11	7.580	7.520	22.210	 H	1	UNK0	0.000	
33	 H36	0.380	13.860	23.220	 H	1	UNK0	0.000	
34	 H20	-0.620	6.410	27.460	 H	1	UNK0	0.000	
35	 H01	3.490	8.050	27.960	 H	1	UNK0	0.000	
36	 H02	4.770	9.350	26.650	 H	1	UNK0	0.000	
37	  C1	1.840	9.100	27.130	C.3	1	UNK0	0.000	
38	  C2	3.070	8.140	26.960	C.3	1	UNK0	0.000	
39	  C3	4.280	8.510	26.150	C.3	1	UNK0	0.000	
40	  C4	5.240	7.320	26.150	C.3	1	UNK0	0.000	
41	  C5	4.620	5.910	26.210	C.3	1	UNK0	0.000	
42	  C6	4.390	5.150	24.900	C.3	1	UNK0	0.000	
43	  C7	5.550	4.250	24.470	C.3	1	UNK0	0.000	
44	  C8	6.570	4.970	23.660	C.2	1	UNK0	0.000	
45	  C9	6.260	5.980	22.860	C.2	1	UNK0	0.000	
46	 C10	7.260	6.530	21.870	C.3	1	UNK0	0.000	
47	 C11	6.690	6.650	20.490	C.2	1	UNK0	0.000	
48	 C12	5.400	6.530	20.150	C.2	1	UNK0	0.000	
49	 C13	4.420	6.260	21.250	C.2	1	UNK0	0.000	
50	  O1	3.260	6.070	20.940	O.2	1	UNK0	0.000	
51	 C14	4.870	6.550	22.690	C.3	1	UNK0	0.000	
52	 C15	3.830	5.910	23.690	C.3	1	UNK0	0.000	
53	 C16	2.700	6.860	24.030	C.3	1	UNK0	0.000	
54	 C17	1.890	6.480	25.260	C.3	1	UNK0	0.000	
55	 C18	2.470	6.770	26.660	C.3	1	UNK0	0.000	
56	  O2	3.470	5.810	27.040	O.3	1	UNK0	0.000	
57	 C19	1.230	6.880	27.620	C.3	1	UNK0	0.000	
58	  O3	0.680	8.220	27.420	O.3	1	UNK0	0.000	
59	  O4	0.230	5.910	27.410	O.3	1	UNK0	0.000	
60	 C20	4.940	8.060	22.790	C.3	1	UNK0	0.000	
61	  O5	5.460	5.160	27.040	O.3	1	UNK0	0.000	
62	 C21	2.090	9.910	28.400	C.3	1	UNK0	0.000	
63	 C22	-1.130	12.560	24.890	C.3	1	UNK0	0.000	
64	 C23	0.210	11.940	25.090	C.2	1	UNK0	0.000	
65	 C24	1.330	12.420	24.520	C.2	1	UNK0	0.000	
66	 C25	2.680	11.880	24.830	C.2	1	UNK0	0.000	
67	  O6	3.670	12.470	24.430	O.co2	1	UNK0	0.000	
68	  O7	2.750	10.930	25.820	O.3	1	UNK0	0.000	
69	 C26	1.610	10.040	25.930	C.3	1	UNK0	0.000	
70	 C27	0.290	10.800	26.060	C.3	1	UNK0	0.000	
71	 C28	1.380	13.560	23.570	C.3	1	UNK0	0.000	
@<TRIPOS>BOND
1 37 38 1
2 37 58 1
3 37 62 1
4 37 69 1
5 35 38 1
6 38 39 1
7 38 55 1
8 1 39 1
9 36 39 1
10 39 40 1
11 2 40 1
12 3 40 1
13 40 41 1
14 41 42 1
15 41 56 1
16 41 61 1
17 7 42 1
18 42 43 1
19 42 52 1
20 6 43 1
21 15 43 1
22 43 44 1
23 5 44 1
24 44 45 2
25 45 46 1
26 45 51 1
27 4 46 1
28 32 46 1
29 46 47 1
30 16 47 1
31 47 48 2
32 10 48 1
33 48 49 1
34 49 50 2
35 49 51 1
36 51 52 1
37 51 60 1
38 14 52 1
39 52 53 1
40 11 53 1
41 12 53 1
42 53 54 1
43 9 54 1
44 30 54 1
45 54 55 1
46 55 56 1
47 55 57 1
48 8 57 1
49 57 58 1
50 57 59 1
51 34 59 1
52 18 60 1
53 21 60 1
54 31 60 1
55 20 61 1
56 13 62 1
57 19 62 1
58 25 62 1
59 23 63 1
60 24 63 1
61 26 63 1
62 63 64 1
63 64 65 2
64 64 70 1
65 65 66 1
66 65 71 1
67 66 67 2
68 66 68 1
69 68 69 1
70 29 69 1
71 69 70 1
72 27 70 1
73 28 70 1
74 17 71 1
75 22 71 1
76 33 71 1
@<TRIPOS>SUBSTRUCTURE
1	UNK0	1	GROUP	1 ****	UNK
