# created with PyMOL 2.5.0
@<TRIPOS>MOLECULE
ZINC14884725
71 76 1                 
SMALL
USER_CHARGES
@<TRIPOS>ATOM
1	 H03	2.970	10.490	25.930	 H	1	UNK0	0.000	
2	 H05	5.060	9.680	26.930	 H	1	UNK0	0.000	
3	 H04	4.240	9.430	28.430	 H	1	UNK0	0.000	
4	 H10	8.460	9.600	24.080	 H	1	UNK0	0.000	
5	 H09	7.790	7.750	25.360	 H	1	UNK0	0.000	
6	 H08	6.150	6.330	26.320	 H	1	UNK0	0.000	
7	 H06	3.760	6.450	25.450	 H	1	UNK0	0.000	
8	 H19	0.220	7.700	28.430	 H	1	UNK0	0.000	
9	 H18	0.560	8.160	24.920	 H	1	UNK0	0.000	
10	 H13	6.090	10.180	20.660	 H	1	UNK0	0.000	
11	 H16	2.360	9.740	24.400	 H	1	UNK0	0.000	
12	 H15	2.190	8.440	23.340	 H	1	UNK0	0.000	
13	 H26	-1.170	11.250	28.280	 H	1	UNK0	0.000	
14	 H14	4.040	7.510	23.610	 H	1	UNK0	0.000	
15	 H07	5.810	6.160	24.640	 H	1	UNK0	0.000	
16	 H12	8.150	10.720	21.940	 H	1	UNK0	0.000	
17	 H35	0.550	13.520	22.080	 H	1	UNK0	0.000	
18	 H22	5.350	11.520	23.910	 H	1	UNK0	0.000	
19	 H25	0.490	11.890	28.400	 H	1	UNK0	0.000	
20	 H24	4.860	7.740	28.710	 H	1	UNK0	0.000	
21	 H23	3.690	11.100	24.080	 H	1	UNK0	0.000	
22	 H34	0.280	14.890	23.170	 H	1	UNK0	0.000	
23	 H29	-2.870	11.200	23.380	 H	1	UNK0	0.000	
24	 H28	-2.490	12.720	22.580	 H	1	UNK0	0.000	
25	 H27	0.010	10.400	29.230	 H	1	UNK0	0.000	
26	 H30	-3.340	12.730	24.130	 H	1	UNK0	0.000	
27	 H33	-1.710	11.910	26.360	 H	1	UNK0	0.000	
28	 H32	-1.850	10.480	25.340	 H	1	UNK0	0.000	
29	 H31	0.540	10.360	25.000	 H	1	UNK0	0.000	
30	 H17	1.720	6.850	25.060	 H	1	UNK0	0.000	
31	 H21	4.820	10.960	25.450	 H	1	UNK0	0.000	
32	 H11	7.400	10.950	24.450	 H	1	UNK0	0.000	
33	 H36	-1.090	14.120	22.380	 H	1	UNK0	0.000	
34	 H20	-0.480	6.640	25.890	 H	1	UNK0	0.000	
35	 H01	1.790	9.420	28.430	 H	1	UNK0	0.000	
36	 H02	3.050	11.190	27.510	 H	1	UNK0	0.000	
37	  C1	0.270	10.140	27.100	C.3	1	UNK0	0.000	
38	  C2	1.700	9.540	27.350	C.3	1	UNK0	0.000	
39	  C3	2.970	10.240	26.970	C.3	1	UNK0	0.000	
40	  C4	4.120	9.330	27.350	C.3	1	UNK0	0.000	
41	  C5	3.950	7.830	27.040	C.3	1	UNK0	0.000	
42	  C6	4.340	7.370	25.610	C.3	1	UNK0	0.000	
43	  C7	5.780	6.880	25.460	C.3	1	UNK0	0.000	
44	  C8	6.750	7.940	25.110	C.2	1	UNK0	0.000	
45	  C9	6.420	9.050	24.430	C.2	1	UNK0	0.000	
46	 C10	7.460	9.990	23.910	C.3	1	UNK0	0.000	
47	 C11	7.300	10.260	22.440	C.2	1	UNK0	0.000	
48	 C12	6.200	9.990	21.720	C.2	1	UNK0	0.000	
49	 C13	5.020	9.420	22.420	C.2	1	UNK0	0.000	
50	  O1	3.990	9.290	21.760	O.2	1	UNK0	0.000	
51	 C14	5.010	9.360	23.960	C.3	1	UNK0	0.000	
52	 C15	3.980	8.260	24.410	C.3	1	UNK0	0.000	
53	 C16	2.520	8.680	24.350	C.3	1	UNK0	0.000	
54	 C17	1.570	7.910	25.270	C.3	1	UNK0	0.000	
55	 C18	1.610	8.120	26.790	C.3	1	UNK0	0.000	
56	  O2	2.660	7.330	27.380	O.3	1	UNK0	0.000	
57	 C19	0.170	7.800	27.340	C.3	1	UNK0	0.000	
58	  O3	-0.640	8.980	27.050	O.3	1	UNK0	0.000	
59	  O4	-0.450	6.620	26.890	O.3	1	UNK0	0.000	
60	 C20	4.690	10.790	24.390	C.3	1	UNK0	0.000	
61	  O5	4.770	7.140	27.950	O.3	1	UNK0	0.000	
62	 C21	-0.120	10.980	28.320	C.3	1	UNK0	0.000	
63	 C22	-2.570	12.230	23.550	C.3	1	UNK0	0.000	
64	 C23	-1.290	12.250	24.320	C.2	1	UNK0	0.000	
65	 C24	-0.210	12.980	24.000	C.2	1	UNK0	0.000	
66	 C25	1.000	13.030	24.890	C.2	1	UNK0	0.000	
67	  O6	1.870	13.860	24.700	O.co2	1	UNK0	0.000	
68	  O7	1.060	12.120	25.920	O.3	1	UNK0	0.000	
69	 C26	0.190	10.980	25.820	C.3	1	UNK0	0.000	
70	 C27	-1.260	11.380	25.520	C.3	1	UNK0	0.000	
71	 C28	-0.120	13.930	22.850	C.3	1	UNK0	0.000	
@<TRIPOS>BOND
1 37 38 1
2 37 58 1
3 37 62 1
4 37 69 1
5 35 38 1
6 38 39 1
7 38 55 1
8 1 39 1
9 36 39 1
10 39 40 1
11 2 40 1
12 3 40 1
13 40 41 1
14 41 42 1
15 41 56 1
16 41 61 1
17 7 42 1
18 42 43 1
19 42 52 1
20 6 43 1
21 15 43 1
22 43 44 1
23 5 44 1
24 44 45 2
25 45 46 1
26 45 51 1
27 4 46 1
28 32 46 1
29 46 47 1
30 16 47 1
31 47 48 2
32 10 48 1
33 48 49 1
34 49 50 2
35 49 51 1
36 51 52 1
37 51 60 1
38 14 52 1
39 52 53 1
40 11 53 1
41 12 53 1
42 53 54 1
43 9 54 1
44 30 54 1
45 54 55 1
46 55 56 1
47 55 57 1
48 8 57 1
49 57 58 1
50 57 59 1
51 34 59 1
52 18 60 1
53 21 60 1
54 31 60 1
55 20 61 1
56 13 62 1
57 19 62 1
58 25 62 1
59 23 63 1
60 24 63 1
61 26 63 1
62 63 64 1
63 64 65 2
64 64 70 1
65 65 66 1
66 65 71 1
67 66 67 2
68 66 68 1
69 68 69 1
70 29 69 1
71 69 70 1
72 27 70 1
73 28 70 1
74 17 71 1
75 22 71 1
76 33 71 1
@<TRIPOS>SUBSTRUCTURE
1	UNK0	1	GROUP	1 ****	UNK
