# created with PyMOL 2.5.0
@<TRIPOS>MOLECULE
cocrystal/docking_cocrystal/2iw8_4SP_LIG.pdb
50 53 1                 
SMALL
USER_CHARGES
@<TRIPOS>ATOM
1	 H21	-12.755	204.120	116.070	 H	1	UNK0	0.000	
2	 H22	-13.499	205.050	117.379	 H	1	UNK0	0.000	
3	 H19	-11.174	205.790	116.955	 H	1	UNK0	0.000	
4	 H08	-7.458	207.480	110.485	 H	1	UNK0	0.000	
5	 H20	-11.616	206.187	115.270	 H	1	UNK0	0.000	
6	 H01	-19.277	207.200	112.879	 H	1	UNK0	0.000	
7	 H05	-9.126	207.452	109.882	 H	1	UNK0	0.000	
8	 H04	-10.282	206.821	113.983	 H	1	UNK0	0.000	
9	 H11	-16.277	205.212	115.869	 H	1	UNK0	0.000	
10	 H03	-13.373	205.712	109.687	 H	1	UNK0	0.000	
11	 H09	-6.940	208.889	111.168	 H	1	UNK0	0.000	
12	 H02	-19.686	205.792	111.866	 H	1	UNK0	0.000	
13	 H10	-15.175	203.874	116.273	 H	1	UNK0	0.000	
14	 H07	-12.525	206.098	113.239	 H	1	UNK0	0.000	
15	 H14	-15.415	207.307	114.953	 H	1	UNK0	0.000	
16	 H13	-15.232	206.937	116.706	 H	1	UNK0	0.000	
17	 H12	-13.805	205.575	114.399	 H	1	UNK0	0.000	
18	 H15	-14.000	208.911	116.289	 H	1	UNK0	0.000	
19	 H18	-11.636	208.211	116.716	 H	1	UNK0	0.000	
20	 H17	-12.841	207.427	117.776	 H	1	UNK0	0.000	
21	 H16	-13.189	208.186	114.856	 H	1	UNK0	0.000	
22	 H06	-11.364	206.702	109.148	 H	1	UNK0	0.000	
23	  C1	-14.519	205.789	111.350	C.2	1	UNK0	0.000	
24	  C2	-18.872	206.352	112.327	C.3	1	UNK0	0.000	
25	  N1	-14.562	205.011	112.463	N.2	1	UNK0	0.000	
26	  C3	-15.694	204.826	113.185	C.2	1	UNK0	0.000	
27	  C4	-16.922	205.480	112.746	C.2	1	UNK0	0.000	
28	  N2	-18.193	205.540	113.186	N.2	1	UNK0	0.000	
29	  N3	-18.025	206.810	111.352	N.2	1	UNK0	0.000	
30	  C5	-16.813	206.251	111.604	C.2	1	UNK0	0.000	
31	  N4	-15.651	206.407	110.922	N.2	1	UNK0	0.000	
32	  N5	-13.336	205.930	110.672	N.pl3	1	UNK0	0.000	
33	  C6	-10.512	206.803	112.918	C.2	1	UNK0	0.000	
34	  C7	-9.530	207.200	111.996	C.2	1	UNK0	0.000	
35	  C8	-9.863	207.153	110.627	C.2	1	UNK0	0.000	
36	  C9	-11.130	206.726	110.213	C.2	1	UNK0	0.000	
37	 C10	-12.105	206.328	111.141	C.2	1	UNK0	0.000	
38	 C11	-11.780	206.384	112.496	C.2	1	UNK0	0.000	
39	  N6	-7.083	207.901	111.323	N.3	1	UNK0	0.000	
40	  S1	-8.058	207.704	112.471	S.o2	1	UNK0	0.000	
41	  O1	-7.434	206.702	113.368	O.2	1	UNK0	0.000	
42	  O2	-8.253	208.956	113.229	O.2	1	UNK0	0.000	
43	  O3	-15.679	204.040	114.285	O.3	1	UNK0	0.000	
44	 C12	-15.405	204.647	115.540	C.3	1	UNK0	0.000	
45	 C13	-14.226	205.575	115.405	C.3	1	UNK0	0.000	
46	 C14	-14.732	206.984	115.739	C.3	1	UNK0	0.000	
47	 C15	-13.593	208.000	115.851	C.3	1	UNK0	0.000	
48	 C16	-12.466	207.505	116.756	C.3	1	UNK0	0.000	
49	 C17	-11.978	206.118	116.296	C.3	1	UNK0	0.000	
50	 C18	-13.113	205.108	116.361	C.3	1	UNK0	0.000	
@<TRIPOS>BOND
1 23 25 1
2 23 31 2
3 23 32 1
4 6 24 1
5 12 24 1
6 24 28 1
7 24 29 1
8 25 26 2
9 26 27 1
10 26 43 1
11 27 28 2
12 27 30 1
13 29 30 2
14 30 31 1
15 10 32 1
16 32 37 1
17 8 33 1
18 33 34 1
19 33 38 2
20 34 35 2
21 34 40 1
22 7 35 1
23 35 36 1
24 22 36 1
25 36 37 2
26 37 38 1
27 14 38 1
28 4 39 1
29 11 39 1
30 39 40 1
31 40 41 2
32 40 42 2
33 43 44 1
34 9 44 1
35 13 44 1
36 44 45 1
37 17 45 1
38 45 46 1
39 45 50 1
40 15 46 1
41 16 46 1
42 46 47 1
43 18 47 1
44 21 47 1
45 47 48 1
46 19 48 1
47 20 48 1
48 48 49 1
49 3 49 1
50 5 49 1
51 49 50 1
52 1 50 1
53 2 50 1
@<TRIPOS>SUBSTRUCTURE
1	UNK0	1	GROUP	1 ****	UNK
