# created with PyMOL 2.5.0
@<TRIPOS>MOLECULE
cocrystal/docking_cocrystal/1jsv_U55_LIG.pdb
29 30 1                 
SMALL
USER_CHARGES
@<TRIPOS>ATOM
1	 H07	-13.640	206.207	109.595	 H	1	UNK0	0.000	
2	 H09	-18.202	207.014	111.892	 H	1	UNK0	0.000	
3	 H06	-6.870	208.862	111.128	 H	1	UNK0	0.000	
4	 H02	-9.190	207.366	109.754	 H	1	UNK0	0.000	
5	 H01	-11.518	206.880	109.008	 H	1	UNK0	0.000	
6	 H11	-15.964	207.053	110.800	 H	1	UNK0	0.000	
7	 H04	-10.355	206.565	113.842	 H	1	UNK0	0.000	
8	 H03	-12.684	206.150	113.105	 H	1	UNK0	0.000	
9	 H10	-15.149	202.745	112.956	 H	1	UNK0	0.000	
10	 H05	-7.365	207.469	110.397	 H	1	UNK0	0.000	
11	 H08	-18.676	205.702	112.948	 H	1	UNK0	0.000	
12	  C1	-12.248	206.379	110.993	C.2	1	UNK0	0.000	
13	  C2	-11.259	206.789	110.063	C.2	1	UNK0	0.000	
14	  C3	-9.947	207.079	110.483	C.2	1	UNK0	0.000	
15	  C4	-11.915	206.369	112.365	C.2	1	UNK0	0.000	
16	  C5	-10.606	206.637	112.784	C.2	1	UNK0	0.000	
17	  C6	-9.616	206.995	111.860	C.2	1	UNK0	0.000	
18	  S1	-8.122	207.661	112.406	S.o2	1	UNK0	0.000	
19	  O1	-7.604	206.847	113.458	O.2	1	UNK0	0.000	
20	  O2	-8.453	209.008	112.969	O.2	1	UNK0	0.000	
21	  N1	-7.032	207.874	111.260	N.3	1	UNK0	0.000	
22	  N2	-13.471	206.037	110.577	N.pl3	1	UNK0	0.000	
23	  N3	-17.986	206.144	112.358	N.pl3	1	UNK0	0.000	
24	  C7	-16.750	205.561	112.188	C.2	1	UNK0	0.000	
25	  N4	-16.510	204.378	112.818	N.2	1	UNK0	0.000	
26	  C8	-15.295	203.751	112.561	C.2	1	UNK0	0.000	
27	  N5	-14.292	204.300	111.860	N.2	1	UNK0	0.000	
28	  C9	-15.754	206.134	111.348	C.2	1	UNK0	0.000	
29	 C10	-14.501	205.515	111.227	C.2	1	UNK0	0.000	
@<TRIPOS>BOND
1 12 13 2
2 12 15 1
3 12 22 1
4 5 13 1
5 13 14 1
6 4 14 1
7 14 17 2
8 8 15 1
9 15 16 2
10 7 16 1
11 16 17 1
12 17 18 1
13 18 19 2
14 18 20 2
15 18 21 1
16 3 21 1
17 10 21 1
18 1 22 1
19 22 29 1
20 2 23 1
21 11 23 1
22 23 24 1
23 24 25 1
24 24 28 2
25 25 26 2
26 9 26 1
27 26 27 1
28 27 29 2
29 6 28 1
30 28 29 1
@<TRIPOS>SUBSTRUCTURE
1	UNK0	1	GROUP	1 ****	UNK
