# created with PyMOL 2.5.0
@<TRIPOS>MOLECULE
ZINC14969940
81 85 1                 
SMALL
USER_CHARGES
@<TRIPOS>ATOM
1	 H15	-14.790	207.406	111.174	 H	1	UNK0	0.000	
2	 H17	-13.924	204.144	112.901	 H	1	UNK0	0.000	
3	 H16	-15.677	204.378	113.095	 H	1	UNK0	0.000	
4	 H22	-6.257	209.166	113.216	 H	1	UNK0	0.000	
5	 H21	-5.557	206.639	111.909	 H	1	UNK0	0.000	
6	 H20	-7.665	205.582	112.265	 H	1	UNK0	0.000	
7	 H18	-14.584	204.672	114.468	 H	1	UNK0	0.000	
8	 H31	-9.231	208.575	111.165	 H	1	UNK0	0.000	
9	 H30	-8.245	209.480	112.339	 H	1	UNK0	0.000	
10	 H25	-6.685	206.653	115.663	 H	1	UNK0	0.000	
11	 H28	-6.659	209.115	111.182	 H	1	UNK0	0.000	
12	 H27	-7.196	205.625	114.303	 H	1	UNK0	0.000	
13	 H38	-19.471	206.462	113.759	 H	1	UNK0	0.000	
14	 H26	-8.405	206.252	115.449	 H	1	UNK0	0.000	
15	 H23	-8.402	209.752	114.260	 H	1	UNK0	0.000	
16	 H19	-8.162	206.559	110.921	 H	1	UNK0	0.000	
17	 H47	-4.951	206.179	112.745	 H	1	UNK0	0.000	
18	 H34	-19.375	207.434	110.269	 H	1	UNK0	0.000	
19	 H37	-18.846	204.816	113.496	 H	1	UNK0	0.000	
20	 H36	-20.374	205.320	112.736	 H	1	UNK0	0.000	
21	 H35	-18.696	205.403	111.011	 H	1	UNK0	0.000	
22	 H46	-3.654	207.202	112.852	 H	1	UNK0	0.000	
23	 H41	-4.838	209.754	114.326	 H	1	UNK0	0.000	
24	 H40	-3.365	208.818	113.976	 H	1	UNK0	0.000	
25	 H39	-5.494	207.135	115.085	 H	1	UNK0	0.000	
26	 H42	-4.058	208.804	115.614	 H	1	UNK0	0.000	
27	 H45	-3.412	204.821	113.696	 H	1	UNK0	0.000	
28	 H44	-4.301	205.467	115.096	 H	1	UNK0	0.000	
29	 H43	-2.734	206.173	114.634	 H	1	UNK0	0.000	
30	 H29	-9.950	209.122	112.698	 H	1	UNK0	0.000	
31	 H33	-18.483	208.275	111.559	 H	1	UNK0	0.000	
32	 H24	-7.646	209.116	115.707	 H	1	UNK0	0.000	
33	 H32	-20.127	207.666	111.865	 H	1	UNK0	0.000	
34	 H01	-15.310	208.147	113.603	 H	1	UNK0	0.000	
35	 H02	-15.751	205.741	115.415	 H	1	UNK0	0.000	
36	 H03	-15.883	207.465	115.842	 H	1	UNK0	0.000	
37	 H04	-13.642	206.793	116.651	 H	1	UNK0	0.000	
38	 H05	-11.108	205.737	115.225	 H	1	UNK0	0.000	
39	 H06	-11.501	207.134	116.287	 H	1	UNK0	0.000	
40	 H07	-11.121	208.412	113.857	 H	1	UNK0	0.000	
41	 H08	-9.569	205.758	113.865	 H	1	UNK0	0.000	
42	 H09	-10.304	205.783	111.582	 H	1	UNK0	0.000	
43	 H10	-11.085	207.416	111.829	 H	1	UNK0	0.000	
44	 H11	-11.874	204.984	113.374	 H	1	UNK0	0.000	
45	 H12	-12.535	205.302	111.731	 H	1	UNK0	0.000	
46	 H13	-13.012	207.686	112.805	 H	1	UNK0	0.000	
47	 H14	-14.200	205.771	110.859	 H	1	UNK0	0.000	
48	  C1	-17.157	206.321	112.170	C.2	1	UNK0	0.000	
49	  N1	-16.882	206.844	113.305	N.2	1	UNK0	0.000	
50	  C2	-15.519	207.088	113.754	C.3	1	UNK0	0.000	
51	  C3	-15.348	206.737	115.232	C.3	1	UNK0	0.000	
52	  C4	-13.893	206.757	115.591	C.2	1	UNK0	0.000	
53	  C5	-12.904	206.735	114.748	C.2	1	UNK0	0.000	
54	  C6	-11.496	206.755	115.265	C.3	1	UNK0	0.000	
55	  C7	-10.585	207.642	114.412	C.3	1	UNK0	0.000	
56	  C8	-9.865	206.702	113.407	C.3	1	UNK0	0.000	
57	  C9	-10.825	206.452	112.266	C.3	1	UNK0	0.000	
58	 C10	-12.110	205.746	112.631	C.3	1	UNK0	0.000	
59	 C11	-13.130	206.693	113.240	C.3	1	UNK0	0.000	
60	 C12	-14.547	206.205	112.955	C.3	1	UNK0	0.000	
61	 C13	-14.884	206.361	111.469	C.3	1	UNK0	0.000	
62	  O1	-16.234	205.919	111.280	O.3	1	UNK0	0.000	
63	 C14	-14.693	204.745	113.386	C.3	1	UNK0	0.000	
64	 C15	-8.628	207.433	112.890	C.3	1	UNK0	0.000	
65	 C16	-7.754	206.615	111.930	C.3	1	UNK0	0.000	
66	 C17	-6.385	207.343	111.995	C.3	1	UNK0	0.000	
67	 C18	-6.350	208.088	113.350	C.3	1	UNK0	0.000	
68	 C19	-7.653	207.716	114.059	C.3	1	UNK0	0.000	
69	 C20	-8.281	208.851	114.862	C.3	1	UNK0	0.000	
70	 C21	-9.614	208.319	115.347	C.2	1	UNK0	0.000	
71	  O2	-9.907	208.439	116.512	O.2	1	UNK0	0.000	
72	 C22	-7.472	206.472	114.931	C.3	1	UNK0	0.000	
73	  O3	-6.275	208.276	110.919	O.3	1	UNK0	0.000	
74	 C23	-9.043	208.747	112.225	C.3	1	UNK0	0.000	
75	 C24	-19.190	207.474	111.342	C.3	1	UNK0	0.000	
76	 C25	-18.609	206.138	111.811	C.3	1	UNK0	0.000	
77	 C26	-19.380	205.649	113.039	C.3	1	UNK0	0.000	
78	 C27	-5.148	207.627	114.176	C.3	1	UNK0	0.000	
79	 C28	-4.291	208.838	114.550	C.3	1	UNK0	0.000	
80	 C29	-3.653	205.723	114.258	C.3	1	UNK0	0.000	
81	  N2	-4.344	206.683	113.376	N.4	1	UNK0	0.000	
@<TRIPOS>BOND
1 48 49 2
2 48 62 1
3 48 76 1
4 49 50 1
5 34 50 1
6 50 51 1
7 50 60 1
8 35 51 1
9 36 51 1
10 51 52 1
11 37 52 1
12 52 53 2
13 53 54 1
14 53 59 1
15 38 54 1
16 39 54 1
17 54 55 1
18 40 55 1
19 55 56 1
20 55 70 1
21 41 56 1
22 56 57 1
23 56 64 1
24 42 57 1
25 43 57 1
26 57 58 1
27 44 58 1
28 45 58 1
29 58 59 1
30 46 59 1
31 59 60 1
32 60 61 1
33 60 63 1
34 1 61 1
35 47 61 1
36 61 62 1
37 2 63 1
38 3 63 1
39 7 63 1
40 64 65 1
41 64 68 1
42 64 74 1
43 6 65 1
44 16 65 1
45 65 66 1
46 5 66 1
47 66 67 1
48 66 73 1
49 4 67 1
50 67 68 1
51 67 78 1
52 68 69 1
53 68 72 1
54 15 69 1
55 32 69 1
56 69 70 1
57 70 71 2
58 10 72 1
59 12 72 1
60 14 72 1
61 11 73 1
62 8 74 1
63 9 74 1
64 30 74 1
65 18 75 1
66 31 75 1
67 33 75 1
68 75 76 1
69 21 76 1
70 76 77 1
71 13 77 1
72 19 77 1
73 20 77 1
74 25 78 1
75 78 79 1
76 78 81 1
77 23 79 1
78 24 79 1
79 26 79 1
80 27 80 1
81 28 80 1
82 29 80 1
83 80 81 1
84 17 81 1
85 22 81 1
@<TRIPOS>SUBSTRUCTURE
1	UNK0	1	GROUP	1 ****	UNK
