# created with PyMOL 2.5.0
@<TRIPOS>MOLECULE
BDB50293153
36 39 1                 
SMALL
USER_CHARGES
@<TRIPOS>ATOM
1	 H11	-11.517	206.734	113.955	 H	1	UNK0	0.000	
2	 H04	-16.077	207.698	110.890	 H	1	UNK0	0.000	
3	 H05	-18.466	207.770	111.475	 H	1	UNK0	0.000	
4	 H06	-19.446	205.818	112.776	 H	1	UNK0	0.000	
5	 H02	-12.599	207.592	108.215	 H	1	UNK0	0.000	
6	 H01	-14.526	206.444	109.244	 H	1	UNK0	0.000	
7	 H08	-7.777	208.265	112.484	 H	1	UNK0	0.000	
8	 H09	-8.919	208.916	116.597	 H	1	UNK0	0.000	
9	 H03	-13.505	203.548	112.588	 H	1	UNK0	0.000	
10	 H10	-11.038	207.674	116.194	 H	1	UNK0	0.000	
11	 H07	-9.236	206.427	111.348	 H	1	UNK0	0.000	
12	  C1	-13.392	206.042	111.045	C.2	1	UNK0	0.000	
13	  C2	-13.579	206.544	109.773	C.2	1	UNK0	0.000	
14	  C3	-12.497	207.177	109.218	C.2	1	UNK0	0.000	
15	  N1	-11.317	207.312	109.846	N.2	1	UNK0	0.000	
16	  C4	-11.204	206.783	111.075	C.2	1	UNK0	0.000	
17	  N2	-12.210	206.140	111.692	N.2	1	UNK0	0.000	
18	  N3	-15.599	203.776	112.946	N.2	1	UNK0	0.000	
19	  C5	-14.415	204.131	112.449	C.2	1	UNK0	0.000	
20	  C6	-14.463	205.340	111.725	C.2	1	UNK0	0.000	
21	  N4	-16.419	204.778	112.576	N.pl3	1	UNK0	0.000	
22	  C7	-15.773	205.761	111.845	C.2	1	UNK0	0.000	
23	  C8	-16.539	206.883	111.447	C.2	1	UNK0	0.000	
24	  C9	-17.838	206.928	111.765	C.2	1	UNK0	0.000	
25	 C10	-18.385	205.782	112.529	C.2	1	UNK0	0.000	
26	  N5	-17.727	204.743	112.932	N.2	1	UNK0	0.000	
27	  N6	-10.020	206.866	111.809	N.pl3	1	UNK0	0.000	
28	 C11	-9.685	207.427	113.048	C.2	1	UNK0	0.000	
29	 C12	-8.498	208.129	113.290	C.2	1	UNK0	0.000	
30	 C13	-8.229	208.659	114.561	C.2	1	UNK0	0.000	
31	 C14	-9.136	208.501	115.613	C.2	1	UNK0	0.000	
32	 C15	-10.319	207.806	115.385	C.2	1	UNK0	0.000	
33	 C16	-10.586	207.277	114.118	C.2	1	UNK0	0.000	
34	  N7	-6.980	209.391	114.789	N.pl3	1	UNK0	0.000	
35	  O1	-6.995	210.324	115.605	O.2	1	UNK0	0.000	
36	  O2	-5.978	209.033	114.153	O.2	1	UNK0	0.000	
@<TRIPOS>BOND
1 12 13 1
2 12 17 2
3 12 20 1
4 6 13 1
5 13 14 2
6 5 14 1
7 14 15 1
8 15 16 2
9 16 17 1
10 16 27 1
11 18 19 2
12 18 21 1
13 9 19 1
14 19 20 1
15 20 22 2
16 21 22 1
17 21 26 1
18 22 23 1
19 2 23 1
20 23 24 2
21 3 24 1
22 24 25 1
23 4 25 1
24 25 26 2
25 11 27 1
26 27 28 1
27 28 29 1
28 28 33 2
29 7 29 1
30 29 30 2
31 30 31 1
32 30 34 1
33 8 31 1
34 31 32 2
35 10 32 1
36 32 33 1
37 1 33 1
38 34 35 1
39 34 36 2
@<TRIPOS>SUBSTRUCTURE
1	UNK0	1	GROUP	1 ****	UNK
