# created with PyMOL 2.5.0
@<TRIPOS>MOLECULE
ZINC00002103
41 42 1                 
SMALL
USER_CHARGES
@<TRIPOS>ATOM
1	 H12	-5.359	207.377	114.648	 H	1	UNK0	0.000	
2	 H17	-19.990	207.371	111.439	 H	1	UNK0	0.000	
3	 H01	-12.797	204.165	112.265	 H	1	UNK0	0.000	
4	 H18	-18.843	208.049	110.305	 H	1	UNK0	0.000	
5	 H03	-12.102	206.590	111.384	 H	1	UNK0	0.000	
6	 H02	-9.948	207.699	110.780	 H	1	UNK0	0.000	
7	 H06	-4.771	206.618	111.845	 H	1	UNK0	0.000	
8	 H05	-8.347	206.560	114.585	 H	1	UNK0	0.000	
9	 H07	-6.306	206.174	111.061	 H	1	UNK0	0.000	
10	 H04	-10.469	205.443	115.189	 H	1	UNK0	0.000	
11	 H10	-4.748	208.447	113.364	 H	1	UNK0	0.000	
12	 H09	-6.782	206.440	113.372	 H	1	UNK0	0.000	
13	 H08	-5.684	207.837	110.924	 H	1	UNK0	0.000	
14	 H11	-6.195	208.908	114.292	 H	1	UNK0	0.000	
15	 H15	-16.450	207.603	110.508	 H	1	UNK0	0.000	
16	 H14	-19.255	205.952	113.281	 H	1	UNK0	0.000	
17	 H13	-17.504	204.426	114.176	 H	1	UNK0	0.000	
18	 H16	-14.675	206.094	111.397	 H	1	UNK0	0.000	
19	  C1	-12.858	205.548	113.795	C.2	1	UNK0	0.000	
20	  O1	-13.409	206.003	114.780	O.2	1	UNK0	0.000	
21	  N1	-13.392	204.505	113.007	N.pl3	1	UNK0	0.000	
22	  C2	-9.029	207.300	112.684	C.2	1	UNK0	0.000	
23	  C3	-10.070	207.252	111.767	C.2	1	UNK0	0.000	
24	  C4	-11.293	206.621	112.114	C.2	1	UNK0	0.000	
25	  C5	-11.486	206.033	113.380	C.2	1	UNK0	0.000	
26	  C6	-10.390	205.978	114.242	C.2	1	UNK0	0.000	
27	  C7	-9.187	206.609	113.893	C.2	1	UNK0	0.000	
28	  O2	-7.819	207.902	112.577	O.3	1	UNK0	0.000	
29	  C8	-5.768	206.969	111.578	C.3	1	UNK0	0.000	
30	  C9	-6.524	207.356	112.841	C.3	1	UNK0	0.000	
31	 C10	-5.644	208.073	113.859	C.3	1	UNK0	0.000	
32	  S1	-14.879	203.762	113.144	S.o2	1	UNK0	0.000	
33	  O3	-15.007	202.691	112.196	O.2	1	UNK0	0.000	
34	  O4	-15.026	203.525	114.574	O.2	1	UNK0	0.000	
35	 C11	-16.026	205.055	112.721	C.2	1	UNK0	0.000	
36	 C12	-17.292	205.065	113.319	C.2	1	UNK0	0.000	
37	 C13	-18.277	205.905	112.801	C.2	1	UNK0	0.000	
38	 C14	-18.021	206.687	111.673	C.2	1	UNK0	0.000	
39	 C15	-16.701	206.837	111.242	C.2	1	UNK0	0.000	
40	 C16	-15.701	206.003	111.753	C.2	1	UNK0	0.000	
41	  N2	-19.047	207.439	111.084	N.pl3	1	UNK0	0.000	
@<TRIPOS>BOND
1 19 20 2
2 19 21 1
3 19 25 1
4 3 21 1
5 21 32 1
6 22 23 2
7 22 27 1
8 22 28 1
9 6 23 1
10 23 24 1
11 5 24 1
12 24 25 2
13 25 26 1
14 10 26 1
15 26 27 2
16 8 27 1
17 28 30 1
18 7 29 1
19 9 29 1
20 13 29 1
21 29 30 1
22 12 30 1
23 30 31 1
24 1 31 1
25 11 31 1
26 14 31 1
27 32 33 2
28 32 34 2
29 32 35 1
30 35 36 2
31 35 40 1
32 17 36 1
33 36 37 1
34 16 37 1
35 37 38 2
36 38 39 1
37 38 41 1
38 15 39 1
39 39 40 2
40 18 40 1
41 2 41 1
42 4 41 1
@<TRIPOS>SUBSTRUCTURE
1	UNK0	1	GROUP	1 ****	UNK
