# created with PyMOL 2.5.0
@<TRIPOS>MOLECULE
ZINC00003491
32 35 1                 
SMALL
USER_CHARGES
@<TRIPOS>ATOM
1	 H04	-13.099	206.895	108.956	 H	1	UNK0	0.000	
2	 H06	-6.191	208.101	113.405	 H	1	UNK0	0.000	
3	 H09	-10.442	205.086	115.992	 H	1	UNK0	0.000	
4	 H03	-15.483	205.569	110.139	 H	1	UNK0	0.000	
5	 H11	-10.925	203.402	116.301	 H	1	UNK0	0.000	
6	 H08	-8.879	206.901	110.416	 H	1	UNK0	0.000	
7	 H01	-10.050	205.631	114.723	 H	1	UNK0	0.000	
8	 H02	-16.191	204.474	112.222	 H	1	UNK0	0.000	
9	 H07	-6.522	207.890	110.801	 H	1	UNK0	0.000	
10	 H10	-11.606	204.718	117.286	 H	1	UNK0	0.000	
11	 H05	-8.431	207.203	114.593	 H	1	UNK0	0.000	
12	  C1	-12.054	205.158	114.171	C.2	1	UNK0	0.000	
13	  C2	-10.801	205.692	113.935	C.2	1	UNK0	0.000	
14	  C3	-10.455	206.311	112.721	C.2	1	UNK0	0.000	
15	  C4	-11.404	206.391	111.692	C.2	1	UNK0	0.000	
16	  C5	-12.668	205.838	111.951	C.2	1	UNK0	0.000	
17	  C6	-13.030	205.225	113.150	C.2	1	UNK0	0.000	
18	  C7	-14.338	204.724	113.243	C.2	1	UNK0	0.000	
19	  C8	-15.176	204.865	112.152	C.2	1	UNK0	0.000	
20	  C9	-14.782	205.483	110.969	C.2	1	UNK0	0.000	
21	 C10	-13.499	205.989	110.846	C.2	1	UNK0	0.000	
22	  N1	-12.757	206.646	109.873	N.pl3	1	UNK0	0.000	
23	 C11	-11.504	206.905	110.332	C.2	1	UNK0	0.000	
24	  O1	-10.618	207.469	109.714	O.2	1	UNK0	0.000	
25	  F1	-14.768	204.116	114.371	 F	1	UNK0	0.000	
26	 C12	-9.104	206.866	112.530	C.2	1	UNK0	0.000	
27	 C13	-8.244	207.251	113.520	C.2	1	UNK0	0.000	
28	 C14	-7.078	207.718	112.900	C.2	1	UNK0	0.000	
29	 C15	-7.250	207.609	111.562	C.2	1	UNK0	0.000	
30	  N2	-8.484	207.090	111.326	N.pl3	1	UNK0	0.000	
31	 C16	-11.265	204.437	116.290	C.3	1	UNK0	0.000	
32	  O2	-12.341	204.576	115.360	O.3	1	UNK0	0.000	
@<TRIPOS>BOND
1 12 13 2
2 12 17 1
3 12 32 1
4 7 13 1
5 13 14 1
6 14 15 2
7 14 26 1
8 15 16 1
9 15 23 1
10 16 17 2
11 16 21 1
12 17 18 1
13 18 19 2
14 18 25 1
15 8 19 1
16 19 20 1
17 4 20 1
18 20 21 2
19 21 22 1
20 1 22 1
21 22 23 1
22 23 24 2
23 26 27 2
24 26 30 1
25 11 27 1
26 27 28 1
27 2 28 1
28 28 29 2
29 9 29 1
30 29 30 1
31 6 30 1
32 3 31 1
33 5 31 1
34 10 31 1
35 31 32 1
@<TRIPOS>SUBSTRUCTURE
1	UNK0	1	GROUP	1 ****	UNK
