# created with PyMOL 2.5.0
@<TRIPOS>MOLECULE
MOL
28 31 1                 
SMALL
USER_CHARGES
@<TRIPOS>ATOM
1	  N1	4.408	10.398	23.553	N.pl3	1	UNK0	0.000	
2	  C1	5.719	10.618	23.606	C.2	1	UNK0	0.000	
3	  N2	6.499	11.696	23.465	N.2	1	UNK0	0.000	
4	  C2	7.809	11.596	23.581	C.2	1	UNK0	0.000	
5	  N3	8.400	10.438	23.827	N.2	1	UNK0	0.000	
6	  C3	7.680	9.319	23.978	C.2	1	UNK0	0.000	
7	  N4	8.280	8.161	24.223	N.pl3	1	UNK0	0.000	
8	  C4	6.299	9.379	23.863	C.2	1	UNK0	0.000	
9	  N5	5.329	8.470	23.943	N.2	1	UNK0	0.000	
10	  C5	4.179	9.099	23.753	C.2	1	UNK0	0.000	
11	  C6	3.368	11.427	23.410	C.3	1	UNK0	0.000	
12	  C7	3.124	12.187	24.725	C.3	1	UNK0	0.000	
13	  C8	3.474	13.666	24.583	C.3	1	UNK0	0.000	
14	  N6	4.923	13.833	24.357	N.3	1	UNK0	0.000	
15	  C9	4.690	15.893	25.683	C.3	1	UNK0	0.000	
16	 C10	5.518	14.631	25.439	C.3	1	UNK0	0.000	
17	 C11	6.947	15.017	25.040	C.3	1	UNK0	0.000	
18	  S1	2.598	8.350	23.744	S.3	1	UNK0	0.000	
19	 C12	2.205	8.382	25.446	C.2	1	UNK0	0.000	
20	 C13	3.038	7.728	26.347	C.2	1	UNK0	0.000	
21	 C14	2.723	7.708	27.698	C.2	1	UNK0	0.000	
22	  O1	3.337	7.145	28.780	O.3	1	UNK0	0.000	
23	 C15	2.231	6.902	29.666	C.3	1	UNK0	0.000	
24	  O2	1.461	8.101	29.491	O.3	1	UNK0	0.000	
25	 C16	1.555	8.322	28.149	C.2	1	UNK0	0.000	
26	 C17	0.722	8.966	27.247	C.2	1	UNK0	0.000	
27	 C18	1.047	9.006	25.896	C.2	1	UNK0	0.000	
28	 Br1	-0.087	9.948	24.694	Br	1	UNK0	0.000	
@<TRIPOS>BOND
1 1 2 1
2 1 10 1
3 1 11 1
4 2 3 1
5 2 8 2
6 3 4 2
7 4 5 1
8 5 6 2
9 6 7 1
10 6 8 1
11 8 9 1
12 9 10 2
13 10 18 1
14 11 12 1
15 12 13 1
16 13 14 1
17 14 16 1
18 15 16 1
19 16 17 1
20 18 19 1
21 19 20 1
22 19 27 2
23 20 21 2
24 21 22 1
25 21 25 1
26 22 23 1
27 23 24 1
28 24 25 1
29 25 26 2
30 26 27 1
31 27 28 1
@<TRIPOS>SUBSTRUCTURE
1	UNK0	1	GROUP	1 ****	UNK
