# created with PyMOL 2.5.0
@<TRIPOS>MOLECULE
MOL
49 52 1                 
SMALL
USER_CHARGES
@<TRIPOS>ATOM
1	 H21	-0.220	9.460	27.580	 H	1	UNK0	0.000	
2	 H05	3.660	12.190	22.660	 H	1	UNK0	0.000	
3	 H07	2.040	12.120	25.000	 H	1	UNK0	0.000	
4	 H19	2.480	6.700	30.670	 H	1	UNK0	0.000	
5	 H20	1.620	6.020	29.330	 H	1	UNK0	0.000	
6	 H18	3.920	7.270	25.980	 H	1	UNK0	0.000	
7	 H04	2.420	10.980	23.130	 H	1	UNK0	0.000	
8	 H03	9.270	8.160	24.310	 H	1	UNK0	0.000	
9	 H10	5.340	12.960	24.360	 H	1	UNK0	0.000	
10	 H02	7.720	7.350	24.320	 H	1	UNK0	0.000	
11	 H08	3.170	14.200	25.530	 H	1	UNK0	0.000	
12	 H01	8.400	12.530	23.500	 H	1	UNK0	0.000	
13	 H09	2.910	14.130	23.770	 H	1	UNK0	0.000	
14	 H06	3.730	11.770	25.510	 H	1	UNK0	0.000	
15	 H13	4.480	16.430	24.780	 H	1	UNK0	0.000	
16	 H12	5.200	16.580	26.410	 H	1	UNK0	0.000	
17	 H11	3.710	15.640	26.180	 H	1	UNK0	0.000	
18	 H14	5.510	14.070	26.390	 H	1	UNK0	0.000	
19	 H17	7.220	15.940	25.650	 H	1	UNK0	0.000	
20	 H16	6.960	15.260	24.020	 H	1	UNK0	0.000	
21	 H15	7.600	14.230	25.330	 H	1	UNK0	0.000	
22	  N1	4.390	10.440	23.560	N.pl3	1	UNK0	0.000	
23	  C1	5.700	10.660	23.620	C.2	1	UNK0	0.000	
24	  N2	6.480	11.740	23.490	N.2	1	UNK0	0.000	
25	  C2	7.790	11.640	23.610	C.2	1	UNK0	0.000	
26	  N3	8.380	10.480	23.850	N.2	1	UNK0	0.000	
27	  C3	7.660	9.360	23.990	C.2	1	UNK0	0.000	
28	  N4	8.260	8.200	24.230	N.pl3	1	UNK0	0.000	
29	  C4	6.280	9.420	23.870	C.2	1	UNK0	0.000	
30	  N5	5.310	8.510	23.940	N.2	1	UNK0	0.000	
31	  C5	4.160	9.140	23.750	C.2	1	UNK0	0.000	
32	  C6	3.350	11.470	23.420	C.3	1	UNK0	0.000	
33	  C7	3.100	12.220	24.740	C.3	1	UNK0	0.000	
34	  C8	3.450	13.700	24.610	C.3	1	UNK0	0.000	
35	  N6	4.900	13.870	24.390	N.3	1	UNK0	0.000	
36	  C9	4.660	15.920	25.730	C.3	1	UNK0	0.000	
37	 C10	5.490	14.660	25.480	C.3	1	UNK0	0.000	
38	 C11	6.920	15.050	25.090	C.3	1	UNK0	0.000	
39	  S1	2.580	8.390	23.730	S.3	1	UNK0	0.000	
40	 C12	2.180	8.410	25.430	C.2	1	UNK0	0.000	
41	 C13	3.010	7.750	26.330	C.2	1	UNK0	0.000	
42	 C14	2.690	7.720	27.680	C.2	1	UNK0	0.000	
43	  O1	3.300	7.150	28.760	O.3	1	UNK0	0.000	
44	 C15	2.190	6.900	29.640	C.3	1	UNK0	0.000	
45	  O2	1.420	8.100	29.470	O.3	1	UNK0	0.000	
46	 C16	1.520	8.330	28.130	C.2	1	UNK0	0.000	
47	 C17	0.690	8.980	27.230	C.2	1	UNK0	0.000	
48	 C18	1.020	9.030	25.880	C.2	1	UNK0	0.000	
49	 Br1	-0.110	9.980	24.680	Br	1	UNK0	0.000	
@<TRIPOS>BOND
1 22 23 1
2 22 31 1
3 22 32 1
4 23 24 1
5 23 29 2
6 24 25 2
7 12 25 1
8 25 26 1
9 26 27 2
10 27 28 1
11 27 29 1
12 8 28 1
13 10 28 1
14 29 30 1
15 30 31 2
16 31 39 1
17 2 32 1
18 7 32 1
19 32 33 1
20 3 33 1
21 14 33 1
22 33 34 1
23 11 34 1
24 13 34 1
25 34 35 1
26 9 35 1
27 35 37 1
28 15 36 1
29 16 36 1
30 17 36 1
31 36 37 1
32 18 37 1
33 37 38 1
34 19 38 1
35 20 38 1
36 21 38 1
37 39 40 1
38 40 41 1
39 40 48 2
40 6 41 1
41 41 42 2
42 42 43 1
43 42 46 1
44 43 44 1
45 4 44 1
46 5 44 1
47 44 45 1
48 45 46 1
49 46 47 2
50 1 47 1
51 47 48 1
52 48 49 1
@<TRIPOS>SUBSTRUCTURE
1	UNK0	1	GROUP	1 ****	UNK
