# created with PyMOL 2.5.0
@<TRIPOS>MOLECULE
MOL
49 52 1                 
SMALL
USER_CHARGES
@<TRIPOS>ATOM
1	 H21	-1.310	10.910	27.330	 H	1	UNK0	0.000	
2	 H05	3.820	12.140	23.210	 H	1	UNK0	0.000	
3	 H07	2.240	11.340	25.700	 H	1	UNK0	0.000	
4	 H19	0.880	8.320	30.760	 H	1	UNK0	0.000	
5	 H20	-0.430	7.180	30.390	 H	1	UNK0	0.000	
6	 H18	1.920	7.200	26.130	 H	1	UNK0	0.000	
7	 H04	2.210	11.380	23.220	 H	1	UNK0	0.000	
8	 H03	8.110	6.730	24.430	 H	1	UNK0	0.000	
9	 H10	4.010	14.170	24.490	 H	1	UNK0	0.000	
10	 H02	6.480	6.190	24.390	 H	1	UNK0	0.000	
11	 H08	1.510	13.530	25.890	 H	1	UNK0	0.000	
12	 H01	8.320	10.990	24.130	 H	1	UNK0	0.000	
13	 H09	1.620	13.440	24.130	 H	1	UNK0	0.000	
14	 H06	3.820	12.090	25.730	 H	1	UNK0	0.000	
15	 H13	2.880	15.880	28.090	 H	1	UNK0	0.000	
16	 H12	1.590	15.160	27.120	 H	1	UNK0	0.000	
17	 H11	2.460	16.590	26.530	 H	1	UNK0	0.000	
18	 H14	3.750	13.850	26.970	 H	1	UNK0	0.000	
19	 H17	4.800	16.470	25.860	 H	1	UNK0	0.000	
20	 H16	5.690	14.930	25.850	 H	1	UNK0	0.000	
21	 H15	5.270	15.720	27.380	 H	1	UNK0	0.000	
22	  N1	3.770	10.190	23.870	N.pl3	1	UNK0	0.000	
23	  C1	5.270	9.980	23.890	C.2	1	UNK0	0.000	
24	  N2	6.260	10.900	23.940	N.2	1	UNK0	0.000	
25	  C2	7.480	10.310	24.040	C.2	1	UNK0	0.000	
26	  N3	7.810	8.980	24.050	N.2	1	UNK0	0.000	
27	  C3	6.810	8.070	23.950	C.2	1	UNK0	0.000	
28	  N4	7.210	6.760	23.960	N.pl3	1	UNK0	0.000	
29	  C4	5.470	8.500	23.920	C.2	1	UNK0	0.000	
30	  N5	4.020	7.800	23.920	N.2	1	UNK0	0.000	
31	  C5	3.050	8.850	23.910	C.2	1	UNK0	0.000	
32	  C6	3.150	11.490	23.780	C.3	1	UNK0	0.000	
33	  C7	2.890	12.040	25.160	C.3	1	UNK0	0.000	
34	  C8	2.210	13.390	25.060	C.3	1	UNK0	0.000	
35	  N6	3.200	14.460	25.030	N.3	1	UNK0	0.000	
36	  C9	2.570	15.650	27.070	C.3	1	UNK0	0.000	
37	 C10	3.610	14.770	26.400	C.3	1	UNK0	0.000	
38	 C11	4.920	15.520	26.360	C.3	1	UNK0	0.000	
39	  S1	1.340	8.680	23.750	S.3	1	UNK0	0.000	
40	 C12	0.830	8.950	25.430	C.2	1	UNK0	0.000	
41	 C13	1.250	8.020	26.390	C.2	1	UNK0	0.000	
42	 C14	0.770	8.130	27.680	C.2	1	UNK0	0.000	
43	  O1	1.100	7.290	28.860	O.3	1	UNK0	0.000	
44	 C15	0.230	7.940	29.970	C.3	1	UNK0	0.000	
45	  O2	-0.640	9.120	29.440	O.3	1	UNK0	0.000	
46	 C16	-0.220	9.190	28.020	C.2	1	UNK0	0.000	
47	 C17	-0.610	10.120	27.080	C.2	1	UNK0	0.000	
48	 C18	-0.070	10.010	25.790	C.2	1	UNK0	0.000	
49	 Br1	-0.600	11.370	24.560	Br	1	UNK0	0.000	
@<TRIPOS>BOND
1 22 23 1
2 22 31 1
3 22 32 1
4 23 24 1
5 23 29 2
6 24 25 2
7 12 25 1
8 25 26 1
9 26 27 2
10 27 28 1
11 27 29 1
12 8 28 1
13 10 28 1
14 29 30 1
15 30 31 2
16 31 39 1
17 2 32 1
18 7 32 1
19 32 33 1
20 3 33 1
21 14 33 1
22 33 34 1
23 11 34 1
24 13 34 1
25 34 35 1
26 9 35 1
27 35 37 1
28 15 36 1
29 16 36 1
30 17 36 1
31 36 37 1
32 18 37 1
33 37 38 1
34 19 38 1
35 20 38 1
36 21 38 1
37 39 40 1
38 40 41 1
39 40 48 2
40 6 41 1
41 41 42 2
42 42 43 1
43 42 46 1
44 43 44 1
45 4 44 1
46 5 44 1
47 44 45 1
48 45 46 1
49 46 47 2
50 1 47 1
51 47 48 1
52 48 49 1
@<TRIPOS>SUBSTRUCTURE
1	UNK0	1	GROUP	1 ****	UNK
