# created with PyMOL 2.5.0
@<TRIPOS>MOLECULE
MOL
28 31 1                 
SMALL
USER_CHARGES
@<TRIPOS>ATOM
1	  N1	5.980	8.689	25.787	N.pl3	1	UNK0	0.000	
2	  C1	6.681	9.722	25.010	C.2	1	UNK0	0.000	
3	  N2	6.145	10.404	23.974	N.2	1	UNK0	0.000	
4	  C2	7.042	11.248	23.413	C.2	1	UNK0	0.000	
5	  N3	8.364	11.400	23.739	N.2	1	UNK0	0.000	
6	  C3	8.880	10.678	24.785	C.2	1	UNK0	0.000	
7	  N4	10.227	10.952	24.962	N.pl3	1	UNK0	0.000	
8	  C4	8.087	9.773	25.554	C.2	1	UNK0	0.000	
9	  N5	8.204	8.660	26.820	N.2	1	UNK0	0.000	
10	  C5	6.916	8.034	26.828	C.2	1	UNK0	0.000	
11	  C6	4.695	8.158	25.356	C.3	1	UNK0	0.000	
12	  C7	3.550	8.837	26.077	C.3	1	UNK0	0.000	
13	  C8	2.538	9.340	25.065	C.3	1	UNK0	0.000	
14	  N6	3.077	10.489	24.342	N.3	1	UNK0	0.000	
15	  C9	1.320	12.130	24.811	C.3	1	UNK0	0.000	
16	 C10	2.752	11.714	25.090	C.3	1	UNK0	0.000	
17	 C11	3.685	12.818	24.641	C.3	1	UNK0	0.000	
18	  S1	6.772	6.318	27.080	S.3	1	UNK0	0.000	
19	 C12	5.669	6.280	28.473	C.2	1	UNK0	0.000	
20	 C13	6.141	6.896	29.644	C.2	1	UNK0	0.000	
21	 C14	5.396	6.758	30.782	C.2	1	UNK0	0.000	
22	  O1	5.732	7.258	32.134	O.3	1	UNK0	0.000	
23	 C15	4.532	6.755	32.982	C.3	1	UNK0	0.000	
24	  O2	3.529	5.895	32.144	O.3	1	UNK0	0.000	
25	 C16	4.132	5.973	30.788	C.2	1	UNK0	0.000	
26	 C17	3.670	5.387	29.636	C.2	1	UNK0	0.000	
27	 C18	4.454	5.536	28.479	C.2	1	UNK0	0.000	
28	 Br1	3.793	4.641	26.926	Br	1	UNK0	0.000	
@<TRIPOS>BOND
1 1 2 1
2 1 10 1
3 1 11 1
4 2 3 1
5 2 8 2
6 3 4 2
7 4 5 1
8 5 6 2
9 6 7 1
10 6 8 1
11 8 9 1
12 9 10 2
13 10 18 1
14 11 12 1
15 12 13 1
16 13 14 1
17 14 16 1
18 15 16 1
19 16 17 1
20 18 19 1
21 19 20 1
22 19 27 2
23 20 21 2
24 21 22 1
25 21 25 1
26 22 23 1
27 23 24 1
28 24 25 1
29 25 26 2
30 26 27 1
31 27 28 1
@<TRIPOS>SUBSTRUCTURE
1	UNK0	1	GROUP	1 ****	UNK
