# created with PyMOL 2.5.0
@<TRIPOS>MOLECULE
MOL
49 52 1                 
SMALL
USER_CHARGES
@<TRIPOS>ATOM
1	 H21	2.550	5.730	30.520	 H	1	UNK0	0.000	
2	 H05	4.560	9.110	25.140	 H	1	UNK0	0.000	
3	 H07	2.960	8.990	27.580	 H	1	UNK0	0.000	
4	 H19	3.780	8.550	34.230	 H	1	UNK0	0.000	
5	 H20	4.680	7.080	34.700	 H	1	UNK0	0.000	
6	 H18	6.930	8.280	30.560	 H	1	UNK0	0.000	
7	 H04	4.580	7.920	26.430	 H	1	UNK0	0.000	
8	 H03	10.400	12.550	25.410	 H	1	UNK0	0.000	
9	 H10	4.060	11.250	25.080	 H	1	UNK0	0.000	
10	 H02	10.470	11.680	26.850	 H	1	UNK0	0.000	
11	 H08	1.540	10.480	26.380	 H	1	UNK0	0.000	
12	 H01	6.660	12.610	23.440	 H	1	UNK0	0.000	
13	 H09	2.250	9.410	25.180	 H	1	UNK0	0.000	
14	 H06	3.840	10.520	27.540	 H	1	UNK0	0.000	
15	 H13	1.180	13.180	24.520	 H	1	UNK0	0.000	
16	 H12	1.110	13.960	26.110	 H	1	UNK0	0.000	
17	 H11	0.590	12.270	25.920	 H	1	UNK0	0.000	
18	 H14	2.870	12.420	26.960	 H	1	UNK0	0.000	
19	 H17	3.450	14.610	25.940	 H	1	UNK0	0.000	
20	 H16	3.630	13.820	24.360	 H	1	UNK0	0.000	
21	 H15	4.730	13.400	25.690	 H	1	UNK0	0.000	
22	  N1	5.900	9.500	26.660	N.pl3	1	UNK0	0.000	
23	  C1	6.630	10.510	25.880	C.2	1	UNK0	0.000	
24	  N2	6.120	11.190	24.830	N.2	1	UNK0	0.000	
25	  C2	7.040	12.010	24.270	C.2	1	UNK0	0.000	
26	  N3	8.360	12.140	24.610	N.2	1	UNK0	0.000	
27	  C3	8.850	11.420	25.670	C.2	1	UNK0	0.000	
28	  N4	10.200	11.670	25.860	N.pl3	1	UNK0	0.000	
29	  C4	8.030	10.540	26.440	C.2	1	UNK0	0.000	
30	  N5	8.110	9.440	27.720	N.2	1	UNK0	0.000	
31	  C5	6.810	8.840	27.720	C.2	1	UNK0	0.000	
32	  C6	4.610	8.990	26.220	C.3	1	UNK0	0.000	
33	  C7	3.470	9.700	26.920	C.3	1	UNK0	0.000	
34	  C8	2.480	10.210	25.890	C.3	1	UNK0	0.000	
35	  N6	3.050	11.340	25.160	N.3	1	UNK0	0.000	
36	  C9	1.320	13.020	25.590	C.3	1	UNK0	0.000	
37	 C10	2.740	12.580	25.890	C.3	1	UNK0	0.000	
38	 C11	3.700	13.660	25.440	C.3	1	UNK0	0.000	
39	  S1	6.630	7.130	27.990	S.3	1	UNK0	0.000	
40	 C12	5.510	7.130	29.370	C.2	1	UNK0	0.000	
41	 C13	5.980	7.750	30.540	C.2	1	UNK0	0.000	
42	 C14	5.220	7.640	31.670	C.2	1	UNK0	0.000	
43	  O1	5.550	8.150	33.020	O.3	1	UNK0	0.000	
44	 C15	4.330	7.680	33.860	C.3	1	UNK0	0.000	
45	  O2	3.320	6.830	33.020	O.3	1	UNK0	0.000	
46	 C16	3.940	6.880	31.670	C.2	1	UNK0	0.000	
47	 C17	3.480	6.290	30.520	C.2	1	UNK0	0.000	
48	 C18	4.280	6.410	29.370	C.2	1	UNK0	0.000	
49	 Br1	3.620	5.510	27.820	Br	1	UNK0	0.000	
@<TRIPOS>BOND
1 22 23 1
2 22 31 1
3 22 32 1
4 23 24 1
5 23 29 2
6 24 25 2
7 12 25 1
8 25 26 1
9 26 27 2
10 27 28 1
11 27 29 1
12 8 28 1
13 10 28 1
14 29 30 1
15 30 31 2
16 31 39 1
17 2 32 1
18 7 32 1
19 32 33 1
20 3 33 1
21 14 33 1
22 33 34 1
23 11 34 1
24 13 34 1
25 34 35 1
26 9 35 1
27 35 37 1
28 15 36 1
29 16 36 1
30 17 36 1
31 36 37 1
32 18 37 1
33 37 38 1
34 19 38 1
35 20 38 1
36 21 38 1
37 39 40 1
38 40 41 1
39 40 48 2
40 6 41 1
41 41 42 2
42 42 43 1
43 42 46 1
44 43 44 1
45 4 44 1
46 5 44 1
47 44 45 1
48 45 46 1
49 46 47 2
50 1 47 1
51 47 48 1
52 48 49 1
@<TRIPOS>SUBSTRUCTURE
1	UNK0	1	GROUP	1 ****	UNK
