# created with PyMOL 2.5.0
@<TRIPOS>MOLECULE
MOL
28 31 1                 
SMALL
USER_CHARGES
@<TRIPOS>ATOM
1	  N1	4.640	10.272	24.267	N.pl3	1	UNK0	0.000	
2	  C1	6.041	9.705	24.124	C.2	1	UNK0	0.000	
3	  N2	7.129	10.237	23.532	N.2	1	UNK0	0.000	
4	  C2	8.189	9.362	23.542	C.2	1	UNK0	0.000	
5	  N3	8.256	8.094	24.022	N.2	1	UNK0	0.000	
6	  C3	7.167	7.582	24.643	C.2	1	UNK0	0.000	
7	  N4	7.277	6.274	25.074	N.pl3	1	UNK0	0.000	
8	  C4	5.971	8.335	24.714	C.2	1	UNK0	0.000	
9	  N5	4.464	8.076	25.215	N.2	1	UNK0	0.000	
10	  C5	3.717	9.256	24.921	C.2	1	UNK0	0.000	
11	  C6	4.213	11.525	23.664	C.3	1	UNK0	0.000	
12	  C7	3.582	12.498	24.646	C.3	1	UNK0	0.000	
13	  C8	4.598	13.319	25.398	C.3	1	UNK0	0.000	
14	  N6	5.369	14.154	24.486	N.3	1	UNK0	0.000	
15	  C9	3.745	16.043	24.538	C.3	1	UNK0	0.000	
16	 C10	5.159	15.557	24.853	C.3	1	UNK0	0.000	
17	 C11	6.160	16.373	24.074	C.3	1	UNK0	0.000	
18	  S1	2.006	9.504	25.129	S.3	1	UNK0	0.000	
19	 C12	1.816	8.744	26.735	C.2	1	UNK0	0.000	
20	 C13	2.641	9.236	27.772	C.2	1	UNK0	0.000	
21	 C14	2.528	8.670	29.024	C.2	1	UNK0	0.000	
22	  O1	3.316	9.024	30.234	O.3	1	UNK0	0.000	
23	 C15	2.739	8.029	31.291	C.3	1	UNK0	0.000	
24	  O2	1.594	7.127	30.700	O.3	1	UNK0	0.000	
25	 C16	1.541	7.593	29.289	C.2	1	UNK0	0.000	
26	 C17	0.715	7.132	28.291	C.2	1	UNK0	0.000	
27	 C18	0.868	7.708	27.009	C.2	1	UNK0	0.000	
28	 Br1	-0.267	6.989	25.653	Br	1	UNK0	0.000	
@<TRIPOS>BOND
1 1 2 1
2 1 10 1
3 1 11 1
4 2 3 1
5 2 8 2
6 3 4 2
7 4 5 1
8 5 6 2
9 6 7 1
10 6 8 1
11 8 9 1
12 9 10 2
13 10 18 1
14 11 12 1
15 12 13 1
16 13 14 1
17 14 16 1
18 15 16 1
19 16 17 1
20 18 19 1
21 19 20 1
22 19 27 2
23 20 21 2
24 21 22 1
25 21 25 1
26 22 23 1
27 23 24 1
28 24 25 1
29 25 26 2
30 26 27 1
31 27 28 1
@<TRIPOS>SUBSTRUCTURE
1	UNK0	1	GROUP	1 ****	UNK
