# created with PyMOL 2.5.0
@<TRIPOS>MOLECULE
MOL
49 52 1                 
SMALL
USER_CHARGES
@<TRIPOS>ATOM
1	 H21	0.570	7.130	28.820	 H	1	UNK0	0.000	
2	 H05	5.770	12.690	23.570	 H	1	UNK0	0.000	
3	 H07	3.670	13.940	24.560	 H	1	UNK0	0.000	
4	 H19	3.000	9.200	32.500	 H	1	UNK0	0.000	
5	 H20	4.160	7.960	31.960	 H	1	UNK0	0.000	
6	 H18	4.030	10.700	27.990	 H	1	UNK0	0.000	
7	 H04	4.150	12.030	23.320	 H	1	UNK0	0.000	
8	 H03	8.430	6.390	24.730	 H	1	UNK0	0.000	
9	 H10	7.140	14.600	25.080	 H	1	UNK0	0.000	
10	 H02	6.870	6.490	25.440	 H	1	UNK0	0.000	
11	 H08	6.020	13.350	26.430	 H	1	UNK0	0.000	
12	 H01	9.710	10.330	23.400	 H	1	UNK0	0.000	
13	 H09	4.860	14.660	26.570	 H	1	UNK0	0.000	
14	 H06	3.680	12.710	25.810	 H	1	UNK0	0.000	
15	 H13	4.150	17.220	25.960	 H	1	UNK0	0.000	
16	 H12	3.900	16.010	24.710	 H	1	UNK0	0.000	
17	 H11	4.650	17.570	24.300	 H	1	UNK0	0.000	
18	 H14	6.200	16.340	26.420	 H	1	UNK0	0.000	
19	 H17	8.030	16.750	24.850	 H	1	UNK0	0.000	
20	 H16	6.870	18.100	24.800	 H	1	UNK0	0.000	
21	 H15	6.890	16.910	23.500	 H	1	UNK0	0.000	
22	  N1	5.290	10.990	24.650	N.pl3	1	UNK0	0.000	
23	  C1	6.670	10.380	24.480	C.2	1	UNK0	0.000	
24	  N2	7.770	10.890	23.890	N.2	1	UNK0	0.000	
25	  C2	8.800	9.980	23.870	C.2	1	UNK0	0.000	
26	  N3	8.830	8.700	24.320	N.2	1	UNK0	0.000	
27	  C3	7.730	8.210	24.940	C.2	1	UNK0	0.000	
28	  N4	7.800	6.890	25.340	N.pl3	1	UNK0	0.000	
29	  C4	6.560	9.000	25.040	C.2	1	UNK0	0.000	
30	  N5	5.050	8.780	25.550	N.2	1	UNK0	0.000	
31	  C5	4.340	9.990	25.290	C.2	1	UNK0	0.000	
32	  C6	4.900	12.270	24.080	C.3	1	UNK0	0.000	
33	  C7	4.310	13.240	25.090	C.3	1	UNK0	0.000	
34	  C8	5.360	14.010	25.850	C.3	1	UNK0	0.000	
35	  N6	6.150	14.840	24.950	N.3	1	UNK0	0.000	
36	  C9	4.590	16.780	25.060	C.3	1	UNK0	0.000	
37	 C10	5.990	16.240	25.350	C.3	1	UNK0	0.000	
38	 C11	7.010	17.040	24.580	C.3	1	UNK0	0.000	
39	  S1	2.640	10.290	25.520	S.3	1	UNK0	0.000	
40	 C12	2.440	9.500	27.110	C.2	1	UNK0	0.000	
41	 C13	3.290	9.940	28.150	C.2	1	UNK0	0.000	
42	 C14	3.170	9.350	29.390	C.2	1	UNK0	0.000	
43	  O1	3.980	9.650	30.600	O.3	1	UNK0	0.000	
44	 C15	3.380	8.650	31.640	C.3	1	UNK0	0.000	
45	  O2	2.200	7.800	31.040	O.3	1	UNK0	0.000	
46	 C16	2.150	8.300	29.640	C.2	1	UNK0	0.000	
47	 C17	1.300	7.890	28.640	C.2	1	UNK0	0.000	
48	 C18	1.460	8.490	27.370	C.2	1	UNK0	0.000	
49	 Br1	0.290	7.840	26.010	Br	1	UNK0	0.000	
@<TRIPOS>BOND
1 22 23 1
2 22 31 1
3 22 32 1
4 23 24 1
5 23 29 2
6 24 25 2
7 12 25 1
8 25 26 1
9 26 27 2
10 27 28 1
11 27 29 1
12 8 28 1
13 10 28 1
14 29 30 1
15 30 31 2
16 31 39 1
17 2 32 1
18 7 32 1
19 32 33 1
20 3 33 1
21 14 33 1
22 33 34 1
23 11 34 1
24 13 34 1
25 34 35 1
26 9 35 1
27 35 37 1
28 15 36 1
29 16 36 1
30 17 36 1
31 36 37 1
32 18 37 1
33 37 38 1
34 19 38 1
35 20 38 1
36 21 38 1
37 39 40 1
38 40 41 1
39 40 48 2
40 6 41 1
41 41 42 2
42 42 43 1
43 42 46 1
44 43 44 1
45 4 44 1
46 5 44 1
47 44 45 1
48 45 46 1
49 46 47 2
50 1 47 1
51 47 48 1
52 48 49 1
@<TRIPOS>SUBSTRUCTURE
1	UNK0	1	GROUP	1 ****	UNK
