# created with PyMOL 2.5.0
@<TRIPOS>MOLECULE
MOL
49 52 1                 
SMALL
USER_CHARGES
@<TRIPOS>ATOM
1	 H21	0.030	10.940	28.560	 H	1	UNK0	0.000	
2	 H05	2.880	13.040	22.840	 H	1	UNK0	0.000	
3	 H07	2.060	13.730	25.440	 H	1	UNK0	0.000	
4	 H19	3.920	9.230	30.800	 H	1	UNK0	0.000	
5	 H20	2.890	7.800	30.980	 H	1	UNK0	0.000	
6	 H18	3.450	8.120	26.120	 H	1	UNK0	0.000	
7	 H04	1.800	12.120	23.890	 H	1	UNK0	0.000	
8	 H03	8.790	9.280	22.830	 H	1	UNK0	0.000	
9	 H10	3.750	16.830	24.690	 H	1	UNK0	0.000	
10	 H02	7.390	8.320	23.090	 H	1	UNK0	0.000	
11	 H08	2.640	15.170	23.570	 H	1	UNK0	0.000	
12	 H01	7.890	13.470	23.300	 H	1	UNK0	0.000	
13	 H09	4.340	14.760	23.700	 H	1	UNK0	0.000	
14	 H06	3.740	13.220	25.630	 H	1	UNK0	0.000	
15	 H13	4.610	17.780	26.830	 H	1	UNK0	0.000	
16	 H12	5.510	16.670	27.880	 H	1	UNK0	0.000	
17	 H11	3.730	16.620	27.830	 H	1	UNK0	0.000	
18	 H14	4.690	14.760	26.540	 H	1	UNK0	0.000	
19	 H17	6.060	16.990	24.940	 H	1	UNK0	0.000	
20	 H16	6.160	15.260	24.560	 H	1	UNK0	0.000	
21	 H15	6.860	15.880	26.060	 H	1	UNK0	0.000	
22	  N1	3.760	11.480	23.850	N.pl3	1	UNK0	0.000	
23	  C1	5.250	11.670	23.690	C.2	1	UNK0	0.000	
24	  N2	5.960	12.810	23.580	N.2	1	UNK0	0.000	
25	  C2	7.280	12.580	23.400	C.2	1	UNK0	0.000	
26	  N3	7.950	11.390	23.320	N.2	1	UNK0	0.000	
27	  C3	7.240	10.250	23.480	C.2	1	UNK0	0.000	
28	  N4	7.980	9.090	23.410	N.pl3	1	UNK0	0.000	
29	  C4	5.830	10.300	23.660	C.2	1	UNK0	0.000	
30	  N5	4.630	9.240	23.830	N.2	1	UNK0	0.000	
31	  C5	3.420	10.000	23.930	C.2	1	UNK0	0.000	
32	  C6	2.790	12.560	23.810	C.3	1	UNK0	0.000	
33	  C7	3.010	13.580	24.920	C.3	1	UNK0	0.000	
34	  C8	3.420	14.890	24.270	C.3	1	UNK0	0.000	
35	  N6	3.570	15.980	25.220	N.3	1	UNK0	0.000	
36	  C9	4.630	16.770	27.230	C.3	1	UNK0	0.000	
37	 C10	4.720	15.750	26.100	C.3	1	UNK0	0.000	
38	 C11	6.020	15.980	25.370	C.3	1	UNK0	0.000	
39	  S1	1.810	9.400	24.150	S.3	1	UNK0	0.000	
40	 C12	1.770	9.490	25.930	C.2	1	UNK0	0.000	
41	 C13	2.710	8.730	26.640	C.2	1	UNK0	0.000	
42	 C14	2.700	8.770	28.020	C.2	1	UNK0	0.000	
43	  O1	3.630	8.120	28.970	O.3	1	UNK0	0.000	
44	 C15	3.130	8.650	30.340	C.3	1	UNK0	0.000	
45	  O2	1.870	9.550	30.200	O.3	1	UNK0	0.000	
46	 C16	1.680	9.600	28.730	C.2	1	UNK0	0.000	
47	 C17	0.760	10.330	28.030	C.2	1	UNK0	0.000	
48	 C18	0.810	10.290	26.620	C.2	1	UNK0	0.000	
49	 Br1	-0.470	11.370	25.720	Br	1	UNK0	0.000	
@<TRIPOS>BOND
1 22 23 1
2 22 31 1
3 22 32 1
4 23 24 1
5 23 29 2
6 24 25 2
7 12 25 1
8 25 26 1
9 26 27 2
10 27 28 1
11 27 29 1
12 8 28 1
13 10 28 1
14 29 30 1
15 30 31 2
16 31 39 1
17 2 32 1
18 7 32 1
19 32 33 1
20 3 33 1
21 14 33 1
22 33 34 1
23 11 34 1
24 13 34 1
25 34 35 1
26 9 35 1
27 35 37 1
28 15 36 1
29 16 36 1
30 17 36 1
31 36 37 1
32 18 37 1
33 37 38 1
34 19 38 1
35 20 38 1
36 21 38 1
37 39 40 1
38 40 41 1
39 40 48 2
40 6 41 1
41 41 42 2
42 42 43 1
43 42 46 1
44 43 44 1
45 4 44 1
46 5 44 1
47 44 45 1
48 45 46 1
49 46 47 2
50 1 47 1
51 47 48 1
52 48 49 1
@<TRIPOS>SUBSTRUCTURE
1	UNK0	1	GROUP	1 ****	UNK
