# created with PyMOL 2.5.0
@<TRIPOS>MOLECULE
MOL
28 31 1                 
SMALL
USER_CHARGES
@<TRIPOS>ATOM
1	  N1	3.210	8.884	24.068	N.pl3	1	UNK0	0.000	
2	  C1	4.570	9.207	23.462	C.2	1	UNK0	0.000	
3	  N2	4.994	10.340	22.911	N.2	1	UNK0	0.000	
4	  C2	6.283	10.254	22.489	C.2	1	UNK0	0.000	
5	  N3	7.132	9.182	22.533	N.2	1	UNK0	0.000	
6	  C3	6.679	8.026	23.045	C.2	1	UNK0	0.000	
7	  N4	7.566	6.972	22.987	N.pl3	1	UNK0	0.000	
8	  C4	5.358	7.933	23.563	C.2	1	UNK0	0.000	
9	  N5	4.415	6.809	24.219	N.2	1	UNK0	0.000	
10	  C5	3.150	7.433	24.504	C.2	1	UNK0	0.000	
11	  C6	2.127	9.849	24.110	C.3	1	UNK0	0.000	
12	  C7	2.240	10.811	25.279	C.3	1	UNK0	0.000	
13	  C8	2.211	12.247	24.804	C.3	1	UNK0	0.000	
14	  N6	3.397	12.586	24.010	N.3	1	UNK0	0.000	
15	  C9	3.810	14.825	24.896	C.3	1	UNK0	0.000	
16	 C10	4.322	13.402	24.795	C.3	1	UNK0	0.000	
17	 C11	5.674	13.432	24.128	C.3	1	UNK0	0.000	
18	  S1	1.720	6.666	25.094	S.3	1	UNK0	0.000	
19	 C12	2.390	5.971	26.579	C.2	1	UNK0	0.000	
20	 C13	2.750	4.603	26.517	C.2	1	UNK0	0.000	
21	 C14	3.261	4.009	27.651	C.2	1	UNK0	0.000	
22	  O1	3.686	2.591	27.820	O.3	1	UNK0	0.000	
23	 C15	4.106	2.565	29.307	C.3	1	UNK0	0.000	
24	  O2	3.944	3.942	30.016	O.3	1	UNK0	0.000	
25	 C16	3.423	4.776	28.906	C.2	1	UNK0	0.000	
26	 C17	3.064	6.114	28.968	C.2	1	UNK0	0.000	
27	 C18	2.533	6.696	27.805	C.2	1	UNK0	0.000	
28	 Br1	1.965	8.508	27.985	Br	1	UNK0	0.000	
@<TRIPOS>BOND
1 1 2 1
2 1 10 1
3 1 11 1
4 2 3 1
5 2 8 2
6 3 4 2
7 4 5 1
8 5 6 2
9 6 7 1
10 6 8 1
11 8 9 1
12 9 10 2
13 10 18 1
14 11 12 1
15 12 13 1
16 13 14 1
17 14 16 1
18 15 16 1
19 16 17 1
20 18 19 1
21 19 20 1
22 19 27 2
23 20 21 2
24 21 22 1
25 21 25 1
26 22 23 1
27 23 24 1
28 24 25 1
29 25 26 2
30 26 27 1
31 27 28 1
@<TRIPOS>SUBSTRUCTURE
1	UNK0	1	GROUP	1 ****	UNK
