# created with PyMOL 2.5.0
@<TRIPOS>MOLECULE
MOL
28 31 1                 
SMALL
USER_CHARGES
@<TRIPOS>ATOM
1	  N1	4.991	9.823	23.341	N.pl3	1	UNK0	0.000	
2	  C1	6.276	10.611	23.224	C.2	1	UNK0	0.000	
3	  N2	6.459	11.894	22.885	N.2	1	UNK0	0.000	
4	  C2	7.779	12.238	22.888	C.2	1	UNK0	0.000	
5	  N3	8.873	11.471	23.175	N.2	1	UNK0	0.000	
6	  C3	8.680	10.178	23.524	C.2	1	UNK0	0.000	
7	  N4	9.814	9.459	23.842	N.pl3	1	UNK0	0.000	
8	  C4	7.362	9.642	23.596	C.2	1	UNK0	0.000	
9	  N5	6.685	8.232	23.963	N.2	1	UNK0	0.000	
10	  C5	5.272	8.395	23.797	C.2	1	UNK0	0.000	
11	  C6	3.702	10.386	23.027	C.3	1	UNK0	0.000	
12	  C7	3.128	11.096	24.231	C.3	1	UNK0	0.000	
13	  C8	2.523	12.432	23.837	C.3	1	UNK0	0.000	
14	  N6	3.529	13.385	23.387	N.3	1	UNK0	0.000	
15	  C9	3.547	14.507	25.592	C.3	1	UNK0	0.000	
16	 C10	4.371	13.868	24.504	C.3	1	UNK0	0.000	
17	 C11	5.312	14.914	23.955	C.3	1	UNK0	0.000	
18	  S1	4.046	7.167	23.847	S.3	1	UNK0	0.000	
19	 C12	3.264	7.504	25.429	C.2	1	UNK0	0.000	
20	 C13	4.082	7.808	26.532	C.2	1	UNK0	0.000	
21	 C14	3.491	7.958	27.774	C.2	1	UNK0	0.000	
22	  O1	4.165	8.261	29.064	O.3	1	UNK0	0.000	
23	 C15	2.983	8.222	30.070	C.3	1	UNK0	0.000	
24	  O2	1.627	7.884	29.375	O.3	1	UNK0	0.000	
25	 C16	2.031	7.754	27.950	C.2	1	UNK0	0.000	
26	 C17	1.234	7.459	26.867	C.2	1	UNK0	0.000	
27	 C18	1.856	7.349	25.607	C.2	1	UNK0	0.000	
28	 Br1	0.674	6.993	24.145	Br	1	UNK0	0.000	
@<TRIPOS>BOND
1 1 2 1
2 1 10 1
3 1 11 1
4 2 3 1
5 2 8 2
6 3 4 2
7 4 5 1
8 5 6 2
9 6 7 1
10 6 8 1
11 8 9 1
12 9 10 2
13 10 18 1
14 11 12 1
15 12 13 1
16 13 14 1
17 14 16 1
18 15 16 1
19 16 17 1
20 18 19 1
21 19 20 1
22 19 27 2
23 20 21 2
24 21 22 1
25 21 25 1
26 22 23 1
27 23 24 1
28 24 25 1
29 25 26 2
30 26 27 1
31 27 28 1
@<TRIPOS>SUBSTRUCTURE
1	UNK0	1	GROUP	1 ****	UNK
