# created with PyMOL 2.5.0
@<TRIPOS>MOLECULE
MOL
28 31 1                 
SMALL
USER_CHARGES
@<TRIPOS>ATOM
1	  N1	4.641	8.608	24.323	N.pl3	1	UNK0	0.000	
2	  C1	6.113	8.268	24.240	C.2	1	UNK0	0.000	
3	  N2	7.153	8.996	23.778	N.2	1	UNK0	0.000	
4	  C2	8.330	8.315	23.855	C.2	1	UNK0	0.000	
5	  N3	8.568	7.059	24.318	N.2	1	UNK0	0.000	
6	  C3	7.529	6.350	24.821	C.2	1	UNK0	0.000	
7	  N4	7.848	5.091	25.283	N.pl3	1	UNK0	0.000	
8	  C4	6.230	6.880	24.799	C.2	1	UNK0	0.000	
9	  N5	4.755	6.394	25.247	N.2	1	UNK0	0.000	
10	  C5	3.854	7.458	24.934	C.2	1	UNK0	0.000	
11	  C6	4.061	9.835	23.812	C.3	1	UNK0	0.000	
12	  C7	3.706	10.765	24.938	C.3	1	UNK0	0.000	
13	  C8	3.106	12.045	24.370	C.3	1	UNK0	0.000	
14	  N6	4.029	12.713	23.466	N.3	1	UNK0	0.000	
15	  C9	4.992	14.014	25.322	C.3	1	UNK0	0.000	
16	 C10	5.267	13.107	24.149	C.3	1	UNK0	0.000	
17	 C11	6.131	13.851	23.149	C.3	1	UNK0	0.000	
18	  S1	2.149	7.554	25.239	S.3	1	UNK0	0.000	
19	 C12	2.157	6.901	26.902	C.2	1	UNK0	0.000	
20	 C13	2.669	7.759	27.894	C.2	1	UNK0	0.000	
21	 C14	2.677	7.312	29.206	C.2	1	UNK0	0.000	
22	  O1	3.188	8.040	30.392	O.3	1	UNK0	0.000	
23	 C15	2.930	6.997	31.522	C.3	1	UNK0	0.000	
24	  O2	2.255	5.702	31.004	O.3	1	UNK0	0.000	
25	 C16	2.152	5.977	29.545	C.2	1	UNK0	0.000	
26	 C17	1.660	5.139	28.574	C.2	1	UNK0	0.000	
27	 C18	1.673	5.606	27.243	C.2	1	UNK0	0.000	
28	 Br1	1.019	4.385	25.937	Br	1	UNK0	0.000	
@<TRIPOS>BOND
1 1 2 1
2 1 10 1
3 1 11 1
4 2 3 1
5 2 8 2
6 3 4 2
7 4 5 1
8 5 6 2
9 6 7 1
10 6 8 1
11 8 9 1
12 9 10 2
13 10 18 1
14 11 12 1
15 12 13 1
16 13 14 1
17 14 16 1
18 15 16 1
19 16 17 1
20 18 19 1
21 19 20 1
22 19 27 2
23 20 21 2
24 21 22 1
25 21 25 1
26 22 23 1
27 23 24 1
28 24 25 1
29 25 26 2
30 26 27 1
31 27 28 1
@<TRIPOS>SUBSTRUCTURE
1	UNK0	1	GROUP	1 ****	UNK
