# created with PyMOL 2.5.0
@<TRIPOS>MOLECULE
MOL
28 31 1                 
SMALL
USER_CHARGES
@<TRIPOS>ATOM
1	  N1	5.206	9.786	23.105	N.pl3	1	UNK0	0.000	
2	  C1	6.629	9.931	23.556	C.2	1	UNK0	0.000	
3	  N2	7.321	11.056	23.849	N.2	1	UNK0	0.000	
4	  C2	8.564	10.772	24.350	C.2	1	UNK0	0.000	
5	  N3	9.167	9.569	24.480	N.2	1	UNK0	0.000	
6	  C3	8.487	8.442	24.147	C.2	1	UNK0	0.000	
7	  N4	9.145	7.274	24.388	N.pl3	1	UNK0	0.000	
8	  C4	7.143	8.537	23.690	C.2	1	UNK0	0.000	
9	  N5	5.943	7.536	23.311	N.2	1	UNK0	0.000	
10	  C5	4.810	8.328	22.986	C.2	1	UNK0	0.000	
11	  C6	4.337	10.963	22.855	C.3	1	UNK0	0.000	
12	  C7	3.804	11.451	24.147	C.3	1	UNK0	0.000	
13	  C8	3.822	12.964	24.200	C.3	1	UNK0	0.000	
14	  N6	5.209	13.403	24.237	N.3	1	UNK0	0.000	
15	  C9	4.811	15.338	25.658	C.3	1	UNK0	0.000	
16	 C10	5.464	13.987	25.566	C.3	1	UNK0	0.000	
17	 C11	6.957	14.111	25.750	C.3	1	UNK0	0.000	
18	  S1	3.226	7.875	22.351	S.3	1	UNK0	0.000	
19	 C12	2.386	7.702	23.907	C.2	1	UNK0	0.000	
20	 C13	2.827	6.739	24.823	C.2	1	UNK0	0.000	
21	 C14	2.122	6.571	26.004	C.2	1	UNK0	0.000	
22	  O1	2.444	5.677	27.143	O.3	1	UNK0	0.000	
23	 C15	1.321	6.031	28.167	C.3	1	UNK0	0.000	
24	  O2	0.335	7.096	27.616	O.3	1	UNK0	0.000	
25	 C16	0.915	7.397	26.275	C.2	1	UNK0	0.000	
26	 C17	0.483	8.330	25.381	C.2	1	UNK0	0.000	
27	 C18	1.219	8.498	24.191	C.2	1	UNK0	0.000	
28	 Br1	0.604	9.881	23.052	Br	1	UNK0	0.000	
@<TRIPOS>BOND
1 1 2 1
2 1 10 1
3 1 11 1
4 2 3 1
5 2 8 2
6 3 4 2
7 4 5 1
8 5 6 2
9 6 7 1
10 6 8 1
11 8 9 1
12 9 10 2
13 10 18 1
14 11 12 1
15 12 13 1
16 13 14 1
17 14 16 1
18 15 16 1
19 16 17 1
20 18 19 1
21 19 20 1
22 19 27 2
23 20 21 2
24 21 22 1
25 21 25 1
26 22 23 1
27 23 24 1
28 24 25 1
29 25 26 2
30 26 27 1
31 27 28 1
@<TRIPOS>SUBSTRUCTURE
1	UNK0	1	GROUP	1 ****	UNK
