# created with PyMOL 2.5.0
@<TRIPOS>MOLECULE
MOL
49 52 1                 
SMALL
USER_CHARGES
@<TRIPOS>ATOM
1	 H21	-0.400	9.730	27.720	 H	1	UNK0	0.000	
2	 H05	3.530	12.320	22.670	 H	1	UNK0	0.000	
3	 H07	1.950	12.090	25.080	 H	1	UNK0	0.000	
4	 H19	2.780	7.290	30.850	 H	1	UNK0	0.000	
5	 H20	1.750	6.390	29.750	 H	1	UNK0	0.000	
6	 H18	3.670	7.330	25.900	 H	1	UNK0	0.000	
7	 H04	2.220	11.180	23.030	 H	1	UNK0	0.000	
8	 H03	9.270	8.300	24.090	 H	1	UNK0	0.000	
9	 H10	5.180	13.200	24.180	 H	1	UNK0	0.000	
10	 H02	7.820	7.370	23.910	 H	1	UNK0	0.000	
11	 H08	2.970	14.170	25.660	 H	1	UNK0	0.000	
12	 H01	8.270	12.530	23.430	 H	1	UNK0	0.000	
13	 H09	2.610	14.190	23.950	 H	1	UNK0	0.000	
14	 H06	3.630	11.770	25.500	 H	1	UNK0	0.000	
15	 H13	4.750	16.710	24.870	 H	1	UNK0	0.000	
16	 H12	5.190	16.610	26.580	 H	1	UNK0	0.000	
17	 H11	3.610	16.030	26.050	 H	1	UNK0	0.000	
18	 H14	5.140	14.130	26.460	 H	1	UNK0	0.000	
19	 H17	7.230	15.440	26.080	 H	1	UNK0	0.000	
20	 H16	6.890	15.480	24.340	 H	1	UNK0	0.000	
21	 H15	7.240	13.940	25.150	 H	1	UNK0	0.000	
22	  N1	4.130	10.530	23.470	N.pl3	1	UNK0	0.000	
23	  C1	5.620	10.730	23.490	C.2	1	UNK0	0.000	
24	  N2	6.340	11.850	23.330	N.2	1	UNK0	0.000	
25	  C2	7.670	11.630	23.480	C.2	1	UNK0	0.000	
26	  N3	8.330	10.460	23.730	N.2	1	UNK0	0.000	
27	  C3	7.600	9.340	23.920	C.2	1	UNK0	0.000	
28	  N4	8.280	8.200	24.280	N.pl3	1	UNK0	0.000	
29	  C4	6.200	9.400	23.800	C.2	1	UNK0	0.000	
30	  N5	5.040	8.370	23.910	N.2	1	UNK0	0.000	
31	  C5	3.840	9.060	23.630	C.2	1	UNK0	0.000	
32	  C6	3.160	11.610	23.400	C.3	1	UNK0	0.000	
33	  C7	2.980	12.240	24.760	C.3	1	UNK0	0.000	
34	  C8	3.250	13.730	24.710	C.3	1	UNK0	0.000	
35	  N6	4.640	14.040	24.420	N.3	1	UNK0	0.000	
36	  C9	4.660	16.100	25.770	C.3	1	UNK0	0.000	
37	 C10	5.270	14.730	25.550	C.3	1	UNK0	0.000	
38	 C11	6.740	14.900	25.260	C.3	1	UNK0	0.000	
39	  S1	2.230	8.430	23.660	S.3	1	UNK0	0.000	
40	 C12	1.920	8.550	25.410	C.2	1	UNK0	0.000	
41	 C13	2.830	7.900	26.280	C.2	1	UNK0	0.000	
42	 C14	2.610	7.980	27.630	C.2	1	UNK0	0.000	
43	  O1	3.340	7.270	28.690	O.3	1	UNK0	0.000	
44	 C15	2.340	7.310	29.860	C.3	1	UNK0	0.000	
45	  O2	1.340	8.460	29.660	O.3	1	UNK0	0.000	
46	 C16	1.390	8.650	28.180	C.2	1	UNK0	0.000	
47	 C17	0.490	9.260	27.330	C.2	1	UNK0	0.000	
48	 C18	0.770	9.210	25.950	C.2	1	UNK0	0.000	
49	 Br1	-0.480	10.120	24.840	Br	1	UNK0	0.000	
@<TRIPOS>BOND
1 22 23 1
2 22 31 1
3 22 32 1
4 23 24 1
5 23 29 2
6 24 25 2
7 12 25 1
8 25 26 1
9 26 27 2
10 27 28 1
11 27 29 1
12 8 28 1
13 10 28 1
14 29 30 1
15 30 31 2
16 31 39 1
17 2 32 1
18 7 32 1
19 32 33 1
20 3 33 1
21 14 33 1
22 33 34 1
23 11 34 1
24 13 34 1
25 34 35 1
26 9 35 1
27 35 37 1
28 15 36 1
29 16 36 1
30 17 36 1
31 36 37 1
32 18 37 1
33 37 38 1
34 19 38 1
35 20 38 1
36 21 38 1
37 39 40 1
38 40 41 1
39 40 48 2
40 6 41 1
41 41 42 2
42 42 43 1
43 42 46 1
44 43 44 1
45 4 44 1
46 5 44 1
47 44 45 1
48 45 46 1
49 46 47 2
50 1 47 1
51 47 48 1
52 48 49 1
@<TRIPOS>SUBSTRUCTURE
1	UNK0	1	GROUP	1 ****	UNK
