# created with PyMOL 2.5.0
@<TRIPOS>MOLECULE
MOL
28 31 1                 
SMALL
USER_CHARGES
@<TRIPOS>ATOM
1	  N1	4.148	10.487	23.463	N.pl3	1	UNK0	0.000	
2	  C1	5.638	10.687	23.476	C.2	1	UNK0	0.000	
3	  N2	6.358	11.805	23.305	N.2	1	UNK0	0.000	
4	  C2	7.689	11.586	23.451	C.2	1	UNK0	0.000	
5	  N3	8.349	10.417	23.707	N.2	1	UNK0	0.000	
6	  C3	7.619	9.299	23.908	C.2	1	UNK0	0.000	
7	  N4	8.300	8.161	24.273	N.pl3	1	UNK0	0.000	
8	  C4	6.219	9.359	23.793	C.2	1	UNK0	0.000	
9	  N5	5.059	8.330	23.915	N.2	1	UNK0	0.000	
10	  C5	3.858	9.019	23.635	C.2	1	UNK0	0.000	
11	  C6	3.178	11.567	23.389	C.3	1	UNK0	0.000	
12	  C7	3.004	12.207	24.746	C.3	1	UNK0	0.000	
13	  C8	3.275	13.696	24.684	C.3	1	UNK0	0.000	
14	  N6	4.664	14.004	24.386	N.3	1	UNK0	0.000	
15	  C9	4.690	16.073	25.722	C.3	1	UNK0	0.000	
16	 C10	5.298	14.701	25.509	C.3	1	UNK0	0.000	
17	 C11	6.767	14.869	25.212	C.3	1	UNK0	0.000	
18	  S1	2.248	8.390	23.675	S.3	1	UNK0	0.000	
19	 C12	1.945	8.522	25.426	C.2	1	UNK0	0.000	
20	 C13	2.858	7.878	26.297	C.2	1	UNK0	0.000	
21	 C14	2.643	7.967	27.647	C.2	1	UNK0	0.000	
22	  O1	3.377	7.265	28.709	O.3	1	UNK0	0.000	
23	 C15	2.382	7.313	29.883	C.3	1	UNK0	0.000	
24	  O2	1.382	8.462	29.678	O.3	1	UNK0	0.000	
25	 C16	1.426	8.642	28.197	C.2	1	UNK0	0.000	
26	 C17	0.523	9.246	27.346	C.2	1	UNK0	0.000	
27	 C18	0.797	9.187	25.966	C.2	1	UNK0	0.000	
28	 Br1	-0.457	10.089	24.854	Br	1	UNK0	0.000	
@<TRIPOS>BOND
1 1 2 1
2 1 10 1
3 1 11 1
4 2 3 1
5 2 8 2
6 3 4 2
7 4 5 1
8 5 6 2
9 6 7 1
10 6 8 1
11 8 9 1
12 9 10 2
13 10 18 1
14 11 12 1
15 12 13 1
16 13 14 1
17 14 16 1
18 15 16 1
19 16 17 1
20 18 19 1
21 19 20 1
22 19 27 2
23 20 21 2
24 21 22 1
25 21 25 1
26 22 23 1
27 23 24 1
28 24 25 1
29 25 26 2
30 26 27 1
31 27 28 1
@<TRIPOS>SUBSTRUCTURE
1	UNK0	1	GROUP	1 ****	UNK
