# created with PyMOL 2.5.0
@<TRIPOS>MOLECULE
MOL
49 52 1                 
SMALL
USER_CHARGES
@<TRIPOS>ATOM
1	 H21	2.640	4.500	23.120	 H	1	UNK0	0.000	
2	 H05	2.480	12.410	24.220	 H	1	UNK0	0.000	
3	 H07	3.700	12.160	26.480	 H	1	UNK0	0.000	
4	 H19	4.800	3.980	18.800	 H	1	UNK0	0.000	
5	 H20	3.110	3.640	18.360	 H	1	UNK0	0.000	
6	 H18	2.640	8.250	19.740	 H	1	UNK0	0.000	
7	 H04	2.750	10.780	24.840	 H	1	UNK0	0.000	
8	 H03	8.520	8.550	23.790	 H	1	UNK0	0.000	
9	 H10	4.740	14.480	27.190	 H	1	UNK0	0.000	
10	 H02	7.580	7.690	22.740	 H	1	UNK0	0.000	
11	 H08	3.840	14.300	25.060	 H	1	UNK0	0.000	
12	 H01	8.360	12.580	23.420	 H	1	UNK0	0.000	
13	 H09	5.400	13.640	24.510	 H	1	UNK0	0.000	
14	 H06	5.090	11.560	25.590	 H	1	UNK0	0.000	
15	 H13	5.200	17.120	26.480	 H	1	UNK0	0.000	
16	 H12	6.600	17.410	25.530	 H	1	UNK0	0.000	
17	 H11	5.170	16.670	24.820	 H	1	UNK0	0.000	
18	 H14	6.820	15.540	27.150	 H	1	UNK0	0.000	
19	 H17	7.160	14.660	24.280	 H	1	UNK0	0.000	
20	 H16	7.960	13.960	25.700	 H	1	UNK0	0.000	
21	 H15	8.260	15.640	25.240	 H	1	UNK0	0.000	
22	  N1	3.840	11.260	23.170	N.pl3	1	UNK0	0.000	
23	  C1	5.490	11.360	22.660	C.2	1	UNK0	0.000	
24	  N2	6.390	12.300	22.870	N.2	1	UNK0	0.000	
25	  C2	7.620	11.830	23.160	C.2	1	UNK0	0.000	
26	  N3	8.030	10.530	23.250	N.2	1	UNK0	0.000	
27	  C3	7.110	9.560	23.050	C.2	1	UNK0	0.000	
28	  N4	7.560	8.350	23.530	N.pl3	1	UNK0	0.000	
29	  C4	5.790	9.910	22.720	C.2	1	UNK0	0.000	
30	  N5	4.450	9.480	23.110	N.2	1	UNK0	0.000	
31	  C5	3.470	10.060	22.160	C.2	1	UNK0	0.000	
32	  C6	3.250	11.670	24.450	C.3	1	UNK0	0.000	
33	  C7	4.220	12.210	25.520	C.3	1	UNK0	0.000	
34	  C8	4.700	13.660	25.310	C.3	1	UNK0	0.000	
35	  N6	5.400	14.220	26.470	N.3	1	UNK0	0.000	
36	  C9	5.800	16.690	25.710	C.3	1	UNK0	0.000	
37	 C10	6.360	15.330	26.190	C.3	1	UNK0	0.000	
38	 C11	7.490	14.870	25.300	C.3	1	UNK0	0.000	
39	  S1	1.880	9.380	22.240	S.3	1	UNK0	0.000	
40	 C12	2.290	7.690	21.820	C.2	1	UNK0	0.000	
41	 C13	2.660	7.470	20.480	C.2	1	UNK0	0.000	
42	 C14	3.050	6.190	20.120	C.2	1	UNK0	0.000	
43	  O1	3.520	5.740	18.780	O.3	1	UNK0	0.000	
44	 C15	3.760	4.220	19.030	C.3	1	UNK0	0.000	
45	  O2	3.490	3.800	20.500	O.3	1	UNK0	0.000	
46	 C16	3.040	5.090	21.100	C.2	1	UNK0	0.000	
47	 C17	2.650	5.300	22.410	C.2	1	UNK0	0.000	
48	 C18	2.290	6.620	22.760	C.2	1	UNK0	0.000	
49	 Br1	1.810	6.880	24.590	Br	1	UNK0	0.000	
@<TRIPOS>BOND
1 22 23 1
2 22 31 1
3 22 32 1
4 23 24 1
5 23 29 2
6 24 25 2
7 12 25 1
8 25 26 1
9 26 27 2
10 27 28 1
11 27 29 1
12 8 28 1
13 10 28 1
14 29 30 1
15 30 31 2
16 31 39 1
17 2 32 1
18 7 32 1
19 32 33 1
20 3 33 1
21 14 33 1
22 33 34 1
23 11 34 1
24 13 34 1
25 34 35 1
26 9 35 1
27 35 37 1
28 15 36 1
29 16 36 1
30 17 36 1
31 36 37 1
32 18 37 1
33 37 38 1
34 19 38 1
35 20 38 1
36 21 38 1
37 39 40 1
38 40 41 1
39 40 48 2
40 6 41 1
41 41 42 2
42 42 43 1
43 42 46 1
44 43 44 1
45 4 44 1
46 5 44 1
47 44 45 1
48 45 46 1
49 46 47 2
50 1 47 1
51 47 48 1
52 48 49 1
@<TRIPOS>SUBSTRUCTURE
1	UNK0	1	GROUP	1 ****	UNK
