# created with PyMOL 2.5.0
@<TRIPOS>MOLECULE
MOL
49 52 1                 
SMALL
USER_CHARGES
@<TRIPOS>ATOM
1	 H21	0.290	9.870	26.100	 H	1	UNK0	0.000	
2	 H05	5.540	12.720	22.760	 H	1	UNK0	0.000	
3	 H07	3.420	12.070	24.730	 H	1	UNK0	0.000	
4	 H19	2.590	7.190	29.400	 H	1	UNK0	0.000	
5	 H20	1.540	5.940	28.700	 H	1	UNK0	0.000	
6	 H18	4.330	7.070	24.860	 H	1	UNK0	0.000	
7	 H04	4.110	11.680	22.600	 H	1	UNK0	0.000	
8	 H03	10.430	8.390	25.220	 H	1	UNK0	0.000	
9	 H10	6.480	13.550	24.540	 H	1	UNK0	0.000	
10	 H02	9.100	7.460	24.630	 H	1	UNK0	0.000	
11	 H08	3.950	14.230	25.600	 H	1	UNK0	0.000	
12	 H01	9.810	12.550	24.900	 H	1	UNK0	0.000	
13	 H09	3.960	14.360	23.850	 H	1	UNK0	0.000	
14	 H06	5.040	11.970	25.400	 H	1	UNK0	0.000	
15	 H13	4.450	16.150	26.220	 H	1	UNK0	0.000	
16	 H12	5.820	16.900	25.400	 H	1	UNK0	0.000	
17	 H11	5.850	16.680	27.150	 H	1	UNK0	0.000	
18	 H14	5.820	14.180	26.800	 H	1	UNK0	0.000	
19	 H17	7.930	15.390	27.160	 H	1	UNK0	0.000	
20	 H16	8.100	15.660	25.410	 H	1	UNK0	0.000	
21	 H15	8.170	14.020	26.080	 H	1	UNK0	0.000	
22	  N1	5.800	10.780	23.430	N.pl3	1	UNK0	0.000	
23	  C1	7.240	10.900	23.830	C.2	1	UNK0	0.000	
24	  N2	7.950	12.010	24.140	N.2	1	UNK0	0.000	
25	  C2	9.210	11.700	24.580	C.2	1	UNK0	0.000	
26	  N3	9.810	10.490	24.640	N.2	1	UNK0	0.000	
27	  C3	9.110	9.380	24.290	C.2	1	UNK0	0.000	
28	  N4	9.770	8.200	24.460	N.pl3	1	UNK0	0.000	
29	  C4	7.750	9.500	23.890	C.2	1	UNK0	0.000	
30	  N5	6.530	8.520	23.520	N.2	1	UNK0	0.000	
31	  C5	5.390	9.330	23.270	C.2	1	UNK0	0.000	
32	  C6	4.930	11.970	23.260	C.3	1	UNK0	0.000	
33	  C7	4.450	12.410	24.590	C.3	1	UNK0	0.000	
34	  C8	4.480	13.920	24.700	C.3	1	UNK0	0.000	
35	  N6	5.870	14.350	24.700	N.3	1	UNK0	0.000	
36	  C9	5.540	16.230	26.210	C.3	1	UNK0	0.000	
37	 C10	6.180	14.880	26.040	C.3	1	UNK0	0.000	
38	 C11	7.680	14.990	26.170	C.3	1	UNK0	0.000	
39	  S1	3.780	8.910	22.680	S.3	1	UNK0	0.000	
40	 C12	3.000	8.680	24.260	C.2	1	UNK0	0.000	
41	 C13	3.470	7.680	25.120	C.2	1	UNK0	0.000	
42	 C14	2.810	7.470	26.320	C.2	1	UNK0	0.000	
43	  O1	3.170	6.530	27.410	O.3	1	UNK0	0.000	
44	 C15	2.090	6.850	28.490	C.3	1	UNK0	0.000	
45	  O2	1.090	7.940	28.020	O.3	1	UNK0	0.000	
46	 C16	1.620	8.290	26.670	C.2	1	UNK0	0.000	
47	 C17	1.160	9.260	25.830	C.2	1	UNK0	0.000	
48	 C18	1.850	9.470	24.620	C.2	1	UNK0	0.000	
49	 Br1	1.200	10.900	23.560	Br	1	UNK0	0.000	
@<TRIPOS>BOND
1 22 23 1
2 22 31 1
3 22 32 1
4 23 24 1
5 23 29 2
6 24 25 2
7 12 25 1
8 25 26 1
9 26 27 2
10 27 28 1
11 27 29 1
12 8 28 1
13 10 28 1
14 29 30 1
15 30 31 2
16 31 39 1
17 2 32 1
18 7 32 1
19 32 33 1
20 3 33 1
21 14 33 1
22 33 34 1
23 11 34 1
24 13 34 1
25 34 35 1
26 9 35 1
27 35 37 1
28 15 36 1
29 16 36 1
30 17 36 1
31 36 37 1
32 18 37 1
33 37 38 1
34 19 38 1
35 20 38 1
36 21 38 1
37 39 40 1
38 40 41 1
39 40 48 2
40 6 41 1
41 41 42 2
42 42 43 1
43 42 46 1
44 43 44 1
45 4 44 1
46 5 44 1
47 44 45 1
48 45 46 1
49 46 47 2
50 1 47 1
51 47 48 1
52 48 49 1
@<TRIPOS>SUBSTRUCTURE
1	UNK0	1	GROUP	1 ****	UNK
