# created with PyMOL 2.5.0
@<TRIPOS>MOLECULE
MOL
28 31 1                 
SMALL
USER_CHARGES
@<TRIPOS>ATOM
1	  N1	3.688	10.194	23.189	N.pl3	1	UNK0	0.000	
2	  C1	5.176	10.421	23.063	C.2	1	UNK0	0.000	
3	  N2	5.862	11.579	23.001	N.2	1	UNK0	0.000	
4	  C2	7.190	11.384	22.839	C.2	1	UNK0	0.000	
5	  N3	7.888	10.212	22.735	N.2	1	UNK0	0.000	
6	  C3	7.200	9.052	22.847	C.2	1	UNK0	0.000	
7	  N4	7.967	7.911	22.756	N.pl3	1	UNK0	0.000	
8	  C4	5.787	9.066	23.002	C.2	1	UNK0	0.000	
9	  N5	4.608	7.975	23.117	N.2	1	UNK0	0.000	
10	  C5	3.380	8.706	23.218	C.2	1	UNK0	0.000	
11	  C6	2.695	11.254	23.164	C.3	1	UNK0	0.000	
12	  C7	2.872	12.244	24.308	C.3	1	UNK0	0.000	
13	  C8	3.265	13.582	23.706	C.3	1	UNK0	0.000	
14	  N6	3.373	14.645	24.691	N.3	1	UNK0	0.000	
15	  C9	4.379	15.395	26.744	C.3	1	UNK0	0.000	
16	 C10	4.512	14.413	25.585	C.3	1	UNK0	0.000	
17	 C11	5.819	14.693	24.887	C.3	1	UNK0	0.000	
18	  S1	1.780	8.064	23.389	S.3	1	UNK0	0.000	
19	 C12	1.706	8.099	25.170	C.2	1	UNK0	0.000	
20	 C13	2.649	7.338	25.874	C.2	1	UNK0	0.000	
21	 C14	2.613	7.335	27.254	C.2	1	UNK0	0.000	
22	  O1	3.540	6.676	28.201	O.3	1	UNK0	0.000	
23	 C15	3.004	7.153	29.577	C.3	1	UNK0	0.000	
24	  O2	1.727	8.029	29.441	O.3	1	UNK0	0.000	
25	 C16	1.563	8.120	27.970	C.2	1	UNK0	0.000	
26	 C17	0.639	8.851	27.275	C.2	1	UNK0	0.000	
27	 C18	0.716	8.856	25.866	C.2	1	UNK0	0.000	
28	 Br1	-0.572	9.935	24.976	Br	1	UNK0	0.000	
@<TRIPOS>BOND
1 1 2 1
2 1 10 1
3 1 11 1
4 2 3 1
5 2 8 2
6 3 4 2
7 4 5 1
8 5 6 2
9 6 7 1
10 6 8 1
11 8 9 1
12 9 10 2
13 10 18 1
14 11 12 1
15 12 13 1
16 13 14 1
17 14 16 1
18 15 16 1
19 16 17 1
20 18 19 1
21 19 20 1
22 19 27 2
23 20 21 2
24 21 22 1
25 21 25 1
26 22 23 1
27 23 24 1
28 24 25 1
29 25 26 2
30 26 27 1
31 27 28 1
@<TRIPOS>SUBSTRUCTURE
1	UNK0	1	GROUP	1 ****	UNK
