# created with PyMOL 2.5.0
@<TRIPOS>MOLECULE
MOL
28 31 1                 
SMALL
USER_CHARGES
@<TRIPOS>ATOM
1	  N1	3.370	10.289	22.627	N.pl3	1	UNK0	0.000	
2	  C1	5.040	10.437	22.204	C.2	1	UNK0	0.000	
3	  N2	5.915	11.376	22.507	N.2	1	UNK0	0.000	
4	  C2	7.137	10.906	22.830	C.2	1	UNK0	0.000	
5	  N3	7.562	9.608	22.870	N.2	1	UNK0	0.000	
6	  C3	6.667	8.639	22.574	C.2	1	UNK0	0.000	
7	  N4	7.112	7.411	23.009	N.pl3	1	UNK0	0.000	
8	  C4	5.359	8.990	22.200	C.2	1	UNK0	0.000	
9	  N5	4.009	8.523	22.501	N.2	1	UNK0	0.000	
10	  C5	3.066	9.142	21.537	C.2	1	UNK0	0.000	
11	  C6	2.713	10.621	23.898	C.3	1	UNK0	0.000	
12	  C7	3.623	11.114	25.041	C.3	1	UNK0	0.000	
13	  C8	4.091	12.579	24.933	C.3	1	UNK0	0.000	
14	  N6	4.726	13.084	26.154	N.3	1	UNK0	0.000	
15	  C9	5.125	15.596	25.548	C.3	1	UNK0	0.000	
16	 C10	5.682	14.219	25.980	C.3	1	UNK0	0.000	
17	 C11	6.860	13.823	25.122	C.3	1	UNK0	0.000	
18	  S1	1.484	8.438	21.504	S.3	1	UNK0	0.000	
19	 C12	1.939	6.779	21.014	C.2	1	UNK0	0.000	
20	 C13	2.376	6.637	19.683	C.2	1	UNK0	0.000	
21	 C14	2.802	5.384	19.274	C.2	1	UNK0	0.000	
22	  O1	3.342	5.014	17.936	O.3	1	UNK0	0.000	
23	 C15	3.592	3.485	18.115	C.3	1	UNK0	0.000	
24	  O2	3.259	2.982	19.545	O.3	1	UNK0	0.000	
25	 C16	2.762	4.232	20.191	C.2	1	UNK0	0.000	
26	 C17	2.307	4.365	21.491	C.2	1	UNK0	0.000	
27	 C18	1.911	5.659	21.893	C.2	1	UNK0	0.000	
28	 Br1	1.341	5.813	23.710	Br	1	UNK0	0.000	
@<TRIPOS>BOND
1 1 2 1
2 1 10 1
3 1 11 1
4 2 3 1
5 2 8 2
6 3 4 2
7 4 5 1
8 5 6 2
9 6 7 1
10 6 8 1
11 8 9 1
12 9 10 2
13 10 18 1
14 11 12 1
15 12 13 1
16 13 14 1
17 14 16 1
18 15 16 1
19 16 17 1
20 18 19 1
21 19 20 1
22 19 27 2
23 20 21 2
24 21 22 1
25 21 25 1
26 22 23 1
27 23 24 1
28 24 25 1
29 25 26 2
30 26 27 1
31 27 28 1
@<TRIPOS>SUBSTRUCTURE
1	UNK0	1	GROUP	1 ****	UNK
