# created with PyMOL 2.5.0
@<TRIPOS>MOLECULE
MOL
49 52 1                 
SMALL
USER_CHARGES
@<TRIPOS>ATOM
1	 H21	2.770	7.340	29.690	 H	1	UNK0	0.000	
2	 H05	1.950	11.300	23.100	 H	1	UNK0	0.000	
3	 H07	1.170	11.500	25.870	 H	1	UNK0	0.000	
4	 H19	4.530	2.850	29.070	 H	1	UNK0	0.000	
5	 H20	2.840	2.470	29.510	 H	1	UNK0	0.000	
6	 H18	2.130	4.850	25.330	 H	1	UNK0	0.000	
7	 H04	0.940	10.200	24.050	 H	1	UNK0	0.000	
8	 H03	7.790	7.780	22.030	 H	1	UNK0	0.000	
9	 H10	3.750	12.540	23.690	 H	1	UNK0	0.000	
10	 H02	6.660	6.790	22.820	 H	1	UNK0	0.000	
11	 H08	2.000	13.730	25.670	 H	1	UNK0	0.000	
12	 H01	6.560	11.900	22.100	 H	1	UNK0	0.000	
13	 H09	1.210	13.290	24.170	 H	1	UNK0	0.000	
14	 H06	2.920	11.380	25.810	 H	1	UNK0	0.000	
15	 H13	3.790	16.090	24.000	 H	1	UNK0	0.000	
16	 H12	4.480	16.140	25.630	 H	1	UNK0	0.000	
17	 H11	2.790	15.660	25.400	 H	1	UNK0	0.000	
18	 H14	4.330	13.690	25.820	 H	1	UNK0	0.000	
19	 H17	6.290	14.790	24.740	 H	1	UNK0	0.000	
20	 H16	5.560	14.510	23.160	 H	1	UNK0	0.000	
21	 H15	6.030	13.140	24.180	 H	1	UNK0	0.000	
22	  N1	2.940	9.710	23.960	N.pl3	1	UNK0	0.000	
23	  C1	4.320	9.990	23.380	C.2	1	UNK0	0.000	
24	  N2	4.800	11.120	22.870	N.2	1	UNK0	0.000	
25	  C2	6.090	10.990	22.460	C.2	1	UNK0	0.000	
26	  N3	6.890	9.880	22.480	N.2	1	UNK0	0.000	
27	  C3	6.380	8.730	22.950	C.2	1	UNK0	0.000	
28	  N4	7.220	7.640	22.870	N.pl3	1	UNK0	0.000	
29	  C4	5.050	8.680	23.450	C.2	1	UNK0	0.000	
30	  N5	4.050	7.580	24.060	N.2	1	UNK0	0.000	
31	  C5	2.810	8.250	24.350	C.2	1	UNK0	0.000	
32	  C6	1.900	10.720	24.020	C.3	1	UNK0	0.000	
33	  C7	2.040	11.640	25.220	C.3	1	UNK0	0.000	
34	  C8	2.080	13.090	24.790	C.3	1	UNK0	0.000	
35	  N6	3.290	13.400	24.020	N.3	1	UNK0	0.000	
36	  C9	3.790	15.590	24.980	C.3	1	UNK0	0.000	
37	 C10	4.240	14.150	24.840	C.3	1	UNK0	0.000	
38	 C11	5.600	14.140	24.190	C.3	1	UNK0	0.000	
39	  S1	1.340	7.530	24.900	S.3	1	UNK0	0.000	
40	 C12	1.960	6.760	26.370	C.2	1	UNK0	0.000	
41	 C13	2.260	5.380	26.270	C.2	1	UNK0	0.000	
42	 C14	2.730	4.730	27.390	C.2	1	UNK0	0.000	
43	  O1	3.090	3.290	27.520	O.3	1	UNK0	0.000	
44	 C15	3.490	3.200	29.010	C.3	1	UNK0	0.000	
45	  O2	3.380	4.560	29.760	O.3	1	UNK0	0.000	
46	 C16	2.910	5.450	28.670	C.2	1	UNK0	0.000	
47	 C17	2.610	6.800	28.770	C.2	1	UNK0	0.000	
48	 C18	2.120	7.440	27.620	C.2	1	UNK0	0.000	
49	 Br1	1.630	9.270	27.850	Br	1	UNK0	0.000	
@<TRIPOS>BOND
1 22 23 1
2 22 31 1
3 22 32 1
4 23 24 1
5 23 29 2
6 24 25 2
7 12 25 1
8 25 26 1
9 26 27 2
10 27 28 1
11 27 29 1
12 8 28 1
13 10 28 1
14 29 30 1
15 30 31 2
16 31 39 1
17 2 32 1
18 7 32 1
19 32 33 1
20 3 33 1
21 14 33 1
22 33 34 1
23 11 34 1
24 13 34 1
25 34 35 1
26 9 35 1
27 35 37 1
28 15 36 1
29 16 36 1
30 17 36 1
31 36 37 1
32 18 37 1
33 37 38 1
34 19 38 1
35 20 38 1
36 21 38 1
37 39 40 1
38 40 41 1
39 40 48 2
40 6 41 1
41 41 42 2
42 42 43 1
43 42 46 1
44 43 44 1
45 4 44 1
46 5 44 1
47 44 45 1
48 45 46 1
49 46 47 2
50 1 47 1
51 47 48 1
52 48 49 1
@<TRIPOS>SUBSTRUCTURE
1	UNK0	1	GROUP	1 ****	UNK
