# created with PyMOL 2.5.0
@<TRIPOS>MOLECULE
MOL
49 52 1                 
SMALL
USER_CHARGES
@<TRIPOS>ATOM
1	 H21	0.830	8.160	28.050	 H	1	UNK0	0.000	
2	 H05	4.310	11.900	23.090	 H	1	UNK0	0.000	
3	 H07	2.880	11.320	25.640	 H	1	UNK0	0.000	
4	 H19	3.570	10.200	31.520	 H	1	UNK0	0.000	
5	 H20	3.920	8.480	31.830	 H	1	UNK0	0.000	
6	 H18	5.790	8.870	27.390	 H	1	UNK0	0.000	
7	 H04	3.560	10.400	23.670	 H	1	UNK0	0.000	
8	 H03	11.000	11.160	25.130	 H	1	UNK0	0.000	
9	 H10	4.590	13.800	23.590	 H	1	UNK0	0.000	
10	 H02	10.130	9.700	25.250	 H	1	UNK0	0.000	
11	 H08	2.380	13.680	25.560	 H	1	UNK0	0.000	
12	 H01	8.380	14.240	23.420	 H	1	UNK0	0.000	
13	 H09	2.280	13.060	23.930	 H	1	UNK0	0.000	
14	 H06	4.410	12.140	25.910	 H	1	UNK0	0.000	
15	 H13	3.340	16.200	26.040	 H	1	UNK0	0.000	
16	 H12	4.650	15.880	27.170	 H	1	UNK0	0.000	
17	 H11	3.360	14.690	26.960	 H	1	UNK0	0.000	
18	 H14	5.410	13.970	25.770	 H	1	UNK0	0.000	
19	 H17	6.390	16.210	25.530	 H	1	UNK0	0.000	
20	 H16	5.120	16.680	24.380	 H	1	UNK0	0.000	
21	 H15	6.300	15.440	23.930	 H	1	UNK0	0.000	
22	  N1	5.510	10.720	24.260	N.pl3	1	UNK0	0.000	
23	  C1	6.770	11.540	24.100	C.2	1	UNK0	0.000	
24	  N2	6.910	12.820	23.730	N.2	1	UNK0	0.000	
25	  C2	8.220	13.200	23.700	C.2	1	UNK0	0.000	
26	  N3	9.340	12.470	23.980	N.2	1	UNK0	0.000	
27	  C3	9.190	11.180	24.360	C.2	1	UNK0	0.000	
28	  N4	10.350	10.500	24.670	N.pl3	1	UNK0	0.000	
29	  C4	7.890	10.610	24.470	C.2	1	UNK0	0.000	
30	  N5	7.260	9.190	24.880	N.2	1	UNK0	0.000	
31	  C5	5.840	9.310	24.740	C.2	1	UNK0	0.000	
32	  C6	4.200	11.240	23.960	C.3	1	UNK0	0.000	
33	  C7	3.630	11.960	25.160	C.3	1	UNK0	0.000	
34	  C8	2.980	13.270	24.750	C.3	1	UNK0	0.000	
35	  N6	3.950	14.240	24.260	N.3	1	UNK0	0.000	
36	  C9	3.980	15.410	26.440	C.3	1	UNK0	0.000	
37	 C10	4.800	14.770	25.350	C.3	1	UNK0	0.000	
38	 C11	5.700	15.830	24.760	C.3	1	UNK0	0.000	
39	  S1	4.650	8.050	24.840	S.3	1	UNK0	0.000	
40	 C12	3.890	8.400	26.430	C.2	1	UNK0	0.000	
41	 C13	4.720	8.750	27.510	C.2	1	UNK0	0.000	
42	 C14	4.150	8.910	28.760	C.2	1	UNK0	0.000	
43	  O1	4.840	9.260	30.030	O.3	1	UNK0	0.000	
44	 C15	3.680	9.210	31.060	C.3	1	UNK0	0.000	
45	  O2	2.320	8.820	30.400	O.3	1	UNK0	0.000	
46	 C16	2.700	8.670	28.970	C.2	1	UNK0	0.000	
47	 C17	1.890	8.330	27.910	C.2	1	UNK0	0.000	
48	 C18	2.490	8.210	26.640	C.2	1	UNK0	0.000	
49	 Br1	1.290	7.790	25.210	Br	1	UNK0	0.000	
@<TRIPOS>BOND
1 22 23 1
2 22 31 1
3 22 32 1
4 23 24 1
5 23 29 2
6 24 25 2
7 12 25 1
8 25 26 1
9 26 27 2
10 27 28 1
11 27 29 1
12 8 28 1
13 10 28 1
14 29 30 1
15 30 31 2
16 31 39 1
17 2 32 1
18 7 32 1
19 32 33 1
20 3 33 1
21 14 33 1
22 33 34 1
23 11 34 1
24 13 34 1
25 34 35 1
26 9 35 1
27 35 37 1
28 15 36 1
29 16 36 1
30 17 36 1
31 36 37 1
32 18 37 1
33 37 38 1
34 19 38 1
35 20 38 1
36 21 38 1
37 39 40 1
38 40 41 1
39 40 48 2
40 6 41 1
41 41 42 2
42 42 43 1
43 42 46 1
44 43 44 1
45 4 44 1
46 5 44 1
47 44 45 1
48 45 46 1
49 46 47 2
50 1 47 1
51 47 48 1
52 48 49 1
@<TRIPOS>SUBSTRUCTURE
1	UNK0	1	GROUP	1 ****	UNK
