# created with PyMOL 2.5.0
@<TRIPOS>MOLECULE
MOL
49 52 1                 
SMALL
USER_CHARGES
@<TRIPOS>ATOM
1	 H21	0.580	10.120	28.330	 H	1	UNK0	0.000	
2	 H05	4.840	12.820	23.520	 H	1	UNK0	0.000	
3	 H07	3.120	12.440	25.940	 H	1	UNK0	0.000	
4	 H19	3.760	8.190	31.440	 H	1	UNK0	0.000	
5	 H20	2.710	6.770	31.180	 H	1	UNK0	0.000	
6	 H18	4.600	7.520	26.730	 H	1	UNK0	0.000	
7	 H04	3.510	11.680	23.810	 H	1	UNK0	0.000	
8	 H03	10.440	9.440	26.060	 H	1	UNK0	0.000	
9	 H10	5.870	14.250	24.820	 H	1	UNK0	0.000	
10	 H02	9.110	8.360	25.970	 H	1	UNK0	0.000	
11	 H08	3.290	14.490	24.410	 H	1	UNK0	0.000	
12	 H01	9.400	13.350	24.710	 H	1	UNK0	0.000	
13	 H09	3.340	14.780	26.140	 H	1	UNK0	0.000	
14	 H06	4.830	12.660	26.300	 H	1	UNK0	0.000	
15	 H13	5.090	17.500	26.080	 H	1	UNK0	0.000	
16	 H12	5.310	17.090	27.780	 H	1	UNK0	0.000	
17	 H11	3.850	16.560	26.940	 H	1	UNK0	0.000	
18	 H14	5.510	14.680	27.210	 H	1	UNK0	0.000	
19	 H17	7.500	16.100	27.320	 H	1	UNK0	0.000	
20	 H16	7.330	16.540	25.610	 H	1	UNK0	0.000	
21	 H15	7.700	14.860	26.080	 H	1	UNK0	0.000	
22	  N1	5.370	11.100	24.510	N.pl3	1	UNK0	0.000	
23	  C1	6.840	11.390	24.640	C.2	1	UNK0	0.000	
24	  N2	7.480	12.570	24.550	N.2	1	UNK0	0.000	
25	  C2	8.820	12.430	24.770	C.2	1	UNK0	0.000	
26	  N3	9.540	11.310	25.060	N.2	1	UNK0	0.000	
27	  C3	8.890	10.130	25.130	C.2	1	UNK0	0.000	
28	  N4	9.670	9.060	25.500	N.pl3	1	UNK0	0.000	
29	  C4	7.490	10.070	24.910	C.2	1	UNK0	0.000	
30	  N5	6.330	8.950	24.940	N.2	1	UNK0	0.000	
31	  C5	5.090	9.620	24.710	C.2	1	UNK0	0.000	
32	  C6	4.390	12.140	24.260	C.3	1	UNK0	0.000	
33	  C7	4.050	12.850	25.550	C.3	1	UNK0	0.000	
34	  C8	3.890	14.330	25.310	C.3	1	UNK0	0.000	
35	  N6	5.200	14.960	25.150	N.3	1	UNK0	0.000	
36	  C9	4.930	16.720	26.830	C.3	1	UNK0	0.000	
37	 C10	5.660	15.440	26.440	C.3	1	UNK0	0.000	
38	 C11	7.140	15.750	26.350	C.3	1	UNK0	0.000	
39	  S1	3.520	8.920	24.480	S.3	1	UNK0	0.000	
40	 C12	2.990	8.880	26.180	C.2	1	UNK0	0.000	
41	 C13	3.740	8.080	27.060	C.2	1	UNK0	0.000	
42	 C14	3.350	8.020	28.390	C.2	1	UNK0	0.000	
43	  O1	4.000	7.280	29.500	O.3	1	UNK0	0.000	
44	 C15	3.120	7.680	30.720	C.3	1	UNK0	0.000	
45	  O2	1.950	8.620	30.320	O.3	1	UNK0	0.000	
46	 C16	2.170	8.790	28.860	C.2	1	UNK0	0.000	
47	 C17	1.430	9.560	27.980	C.2	1	UNK0	0.000	
48	 C18	1.840	9.590	26.640	C.2	1	UNK0	0.000	
49	 Br1	0.760	10.660	25.480	Br	1	UNK0	0.000	
@<TRIPOS>BOND
1 22 23 1
2 22 31 1
3 22 32 1
4 23 24 1
5 23 29 2
6 24 25 2
7 12 25 1
8 25 26 1
9 26 27 2
10 27 28 1
11 27 29 1
12 8 28 1
13 10 28 1
14 29 30 1
15 30 31 2
16 31 39 1
17 2 32 1
18 7 32 1
19 32 33 1
20 3 33 1
21 14 33 1
22 33 34 1
23 11 34 1
24 13 34 1
25 34 35 1
26 9 35 1
27 35 37 1
28 15 36 1
29 16 36 1
30 17 36 1
31 36 37 1
32 18 37 1
33 37 38 1
34 19 38 1
35 20 38 1
36 21 38 1
37 39 40 1
38 40 41 1
39 40 48 2
40 6 41 1
41 41 42 2
42 42 43 1
43 42 46 1
44 43 44 1
45 4 44 1
46 5 44 1
47 44 45 1
48 45 46 1
49 46 47 2
50 1 47 1
51 47 48 1
52 48 49 1
@<TRIPOS>SUBSTRUCTURE
1	UNK0	1	GROUP	1 ****	UNK
