# created with PyMOL 2.5.0
@<TRIPOS>MOLECULE
MOL
28 31 1                 
SMALL
USER_CHARGES
@<TRIPOS>ATOM
1	  N1	4.023	9.064	23.608	N.pl3	1	UNK0	0.000	
2	  C1	5.518	8.830	23.666	C.2	1	UNK0	0.000	
3	  N2	6.520	9.734	23.765	N.2	1	UNK0	0.000	
4	  C2	7.728	9.123	23.886	C.2	1	UNK0	0.000	
5	  N3	8.038	7.788	23.876	N.2	1	UNK0	0.000	
6	  C3	7.028	6.896	23.726	C.2	1	UNK0	0.000	
7	  N4	7.408	5.580	23.718	N.pl3	1	UNK0	0.000	
8	  C4	5.696	7.347	23.668	C.2	1	UNK0	0.000	
9	  N5	4.236	6.669	23.611	N.2	1	UNK0	0.000	
10	  C5	3.282	7.734	23.597	C.2	1	UNK0	0.000	
11	  C6	3.425	10.375	23.530	C.3	1	UNK0	0.000	
12	  C7	3.133	10.898	24.914	C.3	1	UNK0	0.000	
13	  C8	2.476	12.260	24.826	C.3	1	UNK0	0.000	
14	  N6	3.482	13.315	24.848	N.3	1	UNK0	0.000	
15	  C9	2.811	14.469	26.896	C.3	1	UNK0	0.000	
16	 C10	3.857	13.588	26.236	C.3	1	UNK0	0.000	
17	 C11	5.178	14.319	26.250	C.3	1	UNK0	0.000	
18	  S1	1.575	7.594	23.385	S.3	1	UNK0	0.000	
19	 C12	1.021	7.834	25.055	C.2	1	UNK0	0.000	
20	 C13	1.400	6.877	26.006	C.2	1	UNK0	0.000	
21	 C14	0.885	6.965	27.284	C.2	1	UNK0	0.000	
22	  O1	1.168	6.094	28.453	O.3	1	UNK0	0.000	
23	 C15	0.276	6.732	29.552	C.3	1	UNK0	0.000	
24	  O2	-0.561	7.937	29.025	O.3	1	UNK0	0.000	
25	 C16	-0.099	8.032	27.619	C.2	1	UNK0	0.000	
26	 C17	-0.448	8.989	26.690	C.2	1	UNK0	0.000	
27	 C18	0.127	8.899	25.414	C.2	1	UNK0	0.000	
28	 Br1	-0.348	10.294	24.200	Br	1	UNK0	0.000	
@<TRIPOS>BOND
1 1 2 1
2 1 10 1
3 1 11 1
4 2 3 1
5 2 8 2
6 3 4 2
7 4 5 1
8 5 6 2
9 6 7 1
10 6 8 1
11 8 9 1
12 9 10 2
13 10 18 1
14 11 12 1
15 12 13 1
16 13 14 1
17 14 16 1
18 15 16 1
19 16 17 1
20 18 19 1
21 19 20 1
22 19 27 2
23 20 21 2
24 21 22 1
25 21 25 1
26 22 23 1
27 23 24 1
28 24 25 1
29 25 26 2
30 26 27 1
31 27 28 1
@<TRIPOS>SUBSTRUCTURE
1	UNK0	1	GROUP	1 ****	UNK
