# created with PyMOL 2.5.0
@<TRIPOS>MOLECULE
MOL
28 31 1                 
SMALL
USER_CHARGES
@<TRIPOS>ATOM
1	  N1	4.766	10.353	23.855	N.pl3	1	UNK0	0.000	
2	  C1	6.233	10.639	24.025	C.2	1	UNK0	0.000	
3	  N2	6.881	11.815	23.934	N.2	1	UNK0	0.000	
4	  C2	8.213	11.673	24.197	C.2	1	UNK0	0.000	
5	  N3	8.918	10.556	24.528	N.2	1	UNK0	0.000	
6	  C3	8.261	9.380	24.599	C.2	1	UNK0	0.000	
7	  N4	9.024	8.313	25.010	N.pl3	1	UNK0	0.000	
8	  C4	6.868	9.322	24.337	C.2	1	UNK0	0.000	
9	  N5	5.703	8.207	24.351	N.2	1	UNK0	0.000	
10	  C5	4.473	8.878	24.071	C.2	1	UNK0	0.000	
11	  C6	3.799	11.393	23.557	C.3	1	UNK0	0.000	
12	  C7	3.423	12.126	24.824	C.3	1	UNK0	0.000	
13	  C8	3.277	13.602	24.554	C.3	1	UNK0	0.000	
14	  N6	4.594	14.224	24.423	N.3	1	UNK0	0.000	
15	  C9	4.281	16.014	26.064	C.3	1	UNK0	0.000	
16	 C10	5.017	14.724	25.719	C.3	1	UNK0	0.000	
17	 C11	6.500	15.027	25.669	C.3	1	UNK0	0.000	
18	  S1	2.908	8.180	23.806	S.3	1	UNK0	0.000	
19	 C12	2.326	8.172	25.489	C.2	1	UNK0	0.000	
20	 C13	3.045	7.384	26.405	C.2	1	UNK0	0.000	
21	 C14	2.615	7.349	27.723	C.2	1	UNK0	0.000	
22	  O1	3.227	6.625	28.865	O.3	1	UNK0	0.000	
23	 C15	2.312	7.050	30.051	C.3	1	UNK0	0.000	
24	  O2	1.159	7.987	29.599	O.3	1	UNK0	0.000	
25	 C16	1.424	8.131	28.144	C.2	1	UNK0	0.000	
26	 C17	0.715	8.889	27.229	C.2	1	UNK0	0.000	
27	 C18	1.166	8.894	25.902	C.2	1	UNK0	0.000	
28	 Br1	0.127	9.949	24.691	Br	1	UNK0	0.000	
@<TRIPOS>BOND
1 1 2 1
2 1 10 1
3 1 11 1
4 2 3 1
5 2 8 2
6 3 4 2
7 4 5 1
8 5 6 2
9 6 7 1
10 6 8 1
11 8 9 1
12 9 10 2
13 10 18 1
14 11 12 1
15 12 13 1
16 13 14 1
17 14 16 1
18 15 16 1
19 16 17 1
20 18 19 1
21 19 20 1
22 19 27 2
23 20 21 2
24 21 22 1
25 21 25 1
26 22 23 1
27 23 24 1
28 24 25 1
29 25 26 2
30 26 27 1
31 27 28 1
@<TRIPOS>SUBSTRUCTURE
1	UNK0	1	GROUP	1 ****	UNK
