# created with PyMOL 2.5.0
@<TRIPOS>MOLECULE
MOL
49 52 1                 
SMALL
USER_CHARGES
@<TRIPOS>ATOM
1	 H21	2.030	4.930	29.670	 H	1	UNK0	0.000	
2	 H05	5.470	10.890	23.760	 H	1	UNK0	0.000	
3	 H07	3.630	10.960	26.200	 H	1	UNK0	0.000	
4	 H19	2.920	8.410	33.000	 H	1	UNK0	0.000	
5	 H20	4.530	7.690	32.730	 H	1	UNK0	0.000	
6	 H18	3.700	9.510	28.320	 H	1	UNK0	0.000	
7	 H04	3.860	10.140	23.880	 H	1	UNK0	0.000	
8	 H03	7.830	5.230	26.070	 H	1	UNK0	0.000	
9	 H10	4.190	14.140	23.580	 H	1	UNK0	0.000	
10	 H02	9.480	5.590	25.740	 H	1	UNK0	0.000	
11	 H08	3.400	13.370	25.670	 H	1	UNK0	0.000	
12	 H01	9.900	9.580	24.230	 H	1	UNK0	0.000	
13	 H09	2.840	12.370	24.350	 H	1	UNK0	0.000	
14	 H06	5.220	11.690	26.140	 H	1	UNK0	0.000	
15	 H13	4.930	15.540	25.450	 H	1	UNK0	0.000	
16	 H12	6.490	15.160	26.180	 H	1	UNK0	0.000	
17	 H11	5.060	14.210	26.610	 H	1	UNK0	0.000	
18	 H14	6.440	12.910	25.030	 H	1	UNK0	0.000	
19	 H17	6.190	15.330	23.200	 H	1	UNK0	0.000	
20	 H16	7.040	13.820	22.840	 H	1	UNK0	0.000	
21	 H15	7.630	14.880	24.120	 H	1	UNK0	0.000	
22	  N1	5.340	9.270	25.020	N.pl3	1	UNK0	0.000	
23	  C1	6.820	8.960	24.970	C.2	1	UNK0	0.000	
24	  N2	7.850	9.690	24.490	N.2	1	UNK0	0.000	
25	  C2	9.040	9.040	24.610	C.2	1	UNK0	0.000	
26	  N3	9.300	7.810	25.130	N.2	1	UNK0	0.000	
27	  C3	8.270	7.100	25.650	C.2	1	UNK0	0.000	
28	  N4	8.610	5.870	26.170	N.pl3	1	UNK0	0.000	
29	  C4	6.960	7.600	25.590	C.2	1	UNK0	0.000	
30	  N5	5.490	7.100	26.040	N.2	1	UNK0	0.000	
31	  C5	4.570	8.130	25.670	C.2	1	UNK0	0.000	
32	  C6	4.740	10.460	24.450	C.3	1	UNK0	0.000	
33	  C7	4.350	11.430	25.530	C.3	1	UNK0	0.000	
34	  C8	3.730	12.670	24.900	C.3	1	UNK0	0.000	
35	  N6	4.650	13.320	23.980	N.3	1	UNK0	0.000	
36	  C9	5.560	14.720	25.790	C.3	1	UNK0	0.000	
37	 C10	5.870	13.770	24.660	C.3	1	UNK0	0.000	
38	 C11	6.730	14.490	23.640	C.3	1	UNK0	0.000	
39	  S1	2.860	8.200	25.950	S.3	1	UNK0	0.000	
40	 C12	2.860	7.620	27.640	C.2	1	UNK0	0.000	
41	 C13	3.340	8.530	28.600	C.2	1	UNK0	0.000	
42	 C14	3.340	8.140	29.930	C.2	1	UNK0	0.000	
43	  O1	3.820	8.930	31.090	O.3	1	UNK0	0.000	
44	 C15	3.570	7.930	32.260	C.3	1	UNK0	0.000	
45	  O2	2.930	6.600	31.790	O.3	1	UNK0	0.000	
46	 C16	2.840	6.810	30.320	C.2	1	UNK0	0.000	
47	 C17	2.380	5.920	29.380	C.2	1	UNK0	0.000	
48	 C18	2.400	6.330	28.030	C.2	1	UNK0	0.000	
49	 Br1	1.790	5.040	26.770	Br	1	UNK0	0.000	
@<TRIPOS>BOND
1 22 23 1
2 22 31 1
3 22 32 1
4 23 24 1
5 23 29 2
6 24 25 2
7 12 25 1
8 25 26 1
9 26 27 2
10 27 28 1
11 27 29 1
12 8 28 1
13 10 28 1
14 29 30 1
15 30 31 2
16 31 39 1
17 2 32 1
18 7 32 1
19 32 33 1
20 3 33 1
21 14 33 1
22 33 34 1
23 11 34 1
24 13 34 1
25 34 35 1
26 9 35 1
27 35 37 1
28 15 36 1
29 16 36 1
30 17 36 1
31 36 37 1
32 18 37 1
33 37 38 1
34 19 38 1
35 20 38 1
36 21 38 1
37 39 40 1
38 40 41 1
39 40 48 2
40 6 41 1
41 41 42 2
42 42 43 1
43 42 46 1
44 43 44 1
45 4 44 1
46 5 44 1
47 44 45 1
48 45 46 1
49 46 47 2
50 1 47 1
51 47 48 1
52 48 49 1
@<TRIPOS>SUBSTRUCTURE
1	UNK0	1	GROUP	1 ****	UNK
