# created with PyMOL 2.5.0
@<TRIPOS>MOLECULE
comp
25 27 1                 
SMALL
USER_CHARGES
@<TRIPOS>ATOM
1	  C4	-13.841	201.232	118.438	C.3	1	LIG1	0.000	
2	  C5	-14.500	201.702	117.285	C.3	1	LIG1	0.000	
3	  C6	-14.891	203.042	117.172	C.3	1	LIG1	0.000	
4	  C7	-14.548	203.964	118.166	C.3	1	LIG1	0.000	
5	  C8	-13.861	203.519	119.300	C.3	1	LIG1	0.000	
6	  C9	-13.511	202.173	119.422	C.3	1	LIG1	0.000	
7	 C11	-18.322	199.677	118.178	C.3	1	LIG1	0.000	
8	 C12	-17.476	200.421	119.028	C.3	1	LIG1	0.000	
9	 C13	-17.704	201.779	119.239	C.3	1	LIG1	0.000	
10	 C14	-18.792	202.412	118.630	C.3	1	LIG1	0.000	
11	 C15	-19.641	201.687	117.801	C.3	1	LIG1	0.000	
12	 C16	-19.413	200.329	117.580	C.3	1	LIG1	0.000	
13	  N1	-14.913	198.139	119.732	N.3	1	LIG1	0.000	
14	  N2	-16.877	196.786	120.472	N.3	1	LIG1	0.000	
15	  C1	-16.795	197.565	117.967	C.3	1	LIG1	0.000	
16	  C2	-16.233	197.439	119.495	C.3	1	LIG1	0.000	
17	  C3	-14.335	198.867	118.556	C.3	1	LIG1	0.000	
18	  S1	-15.382	198.570	117.001	S.3	1	LIG1	0.000	
19	  N3	-13.454	199.900	118.641	N.3	1	LIG1	0.000	
20	  N4	-17.235	203.918	116.046	N.3	1	LIG1	0.000	
21	  O1	-15.176	204.901	115.261	O.3	1	LIG1	0.000	
22	  O2	-15.783	202.499	114.715	O.3	1	LIG1	0.000	
23	  S2	-15.687	203.610	115.638	S.o2	1	LIG1	0.000	
24	 C10	-18.140	198.234	117.835	C.3	1	LIG1	0.000	
25	  O3	-19.002	197.718	117.139	O.3	1	LIG1	0.000	
@<TRIPOS>BOND
1 1 2 1
2 1 6 1
3 1 19 1
4 2 3 1
5 3 4 1
6 3 23 1
7 4 5 1
8 5 6 1
9 7 8 1
10 7 12 1
11 7 24 1
12 8 9 1
13 9 10 1
14 10 11 1
15 11 12 1
16 13 16 1
17 13 17 1
18 14 16 1
19 15 16 1
20 15 18 1
21 15 24 1
22 17 18 1
23 17 19 1
24 20 23 1
25 21 23 1
26 22 23 1
27 24 25 1
@<TRIPOS>SUBSTRUCTURE
1	LIG1	1	GROUP	1 ****	LIG
