# created with PyMOL 2.5.0
@<TRIPOS>MOLECULE
comp
25 27 1                 
SMALL
USER_CHARGES
@<TRIPOS>ATOM
1	  C4	-13.801	207.156	120.479	C.3	1	LIG1	0.000	
2	  C5	-15.182	206.834	120.556	C.3	1	LIG1	0.000	
3	  C6	-15.719	206.260	121.710	C.3	1	LIG1	0.000	
4	  C7	-14.903	206.036	122.838	C.3	1	LIG1	0.000	
5	  C8	-13.542	206.358	122.771	C.3	1	LIG1	0.000	
6	  C9	-13.016	206.913	121.617	C.3	1	LIG1	0.000	
7	 C11	-14.849	204.282	116.736	C.3	1	LIG1	0.000	
8	 C12	-16.215	204.127	116.976	C.3	1	LIG1	0.000	
9	 C13	-16.677	203.761	118.231	C.3	1	LIG1	0.000	
10	 C14	-15.754	203.528	119.266	C.3	1	LIG1	0.000	
11	 C15	-14.389	203.653	119.016	C.3	1	LIG1	0.000	
12	 C16	-13.916	204.009	117.760	C.3	1	LIG1	0.000	
13	  N1	-14.997	207.851	117.537	N.3	1	LIG1	0.000	
14	  N2	-16.476	207.421	115.624	N.3	1	LIG1	0.000	
15	  C1	-14.023	206.375	115.559	C.3	1	LIG1	0.000	
16	  C2	-15.253	207.244	116.182	C.3	1	LIG1	0.000	
17	  C3	-13.595	207.633	118.080	C.3	1	LIG1	0.000	
18	  S1	-12.530	206.705	116.850	S.3	1	LIG1	0.000	
19	  N3	-13.184	207.719	119.382	N.3	1	LIG1	0.000	
20	  N4	-18.267	206.831	120.829	N.3	1	LIG1	0.000	
21	  O1	-17.794	204.536	121.562	O.3	1	LIG1	0.000	
22	  O2	-17.912	206.441	123.215	O.3	1	LIG1	0.000	
23	  S2	-17.526	205.908	121.937	S.o2	1	LIG1	0.000	
24	 C10	-14.404	204.919	115.485	C.3	1	LIG1	0.000	
25	  O3	-14.962	204.499	114.461	O.3	1	LIG1	0.000	
@<TRIPOS>BOND
1 1 2 1
2 1 6 1
3 1 19 1
4 2 3 1
5 3 4 1
6 3 23 1
7 4 5 1
8 5 6 1
9 7 8 1
10 7 12 1
11 7 24 1
12 8 9 1
13 9 10 1
14 10 11 1
15 11 12 1
16 13 16 1
17 13 17 1
18 14 16 1
19 15 16 1
20 15 18 1
21 15 24 1
22 17 18 1
23 17 19 1
24 20 23 1
25 21 23 1
26 22 23 1
27 24 25 1
@<TRIPOS>SUBSTRUCTURE
1	LIG1	1	GROUP	1 ****	LIG
