# created with PyMOL 2.5.0
@<TRIPOS>MOLECULE
comp
25 27 1                 
SMALL
USER_CHARGES
@<TRIPOS>ATOM
1	  C4	-17.445	205.213	116.639	C.3	1	LIG1	0.000	
2	  C5	-16.345	204.840	115.856	C.3	1	LIG1	0.000	
3	  C6	-16.514	204.396	114.540	C.3	1	LIG1	0.000	
4	  C7	-17.799	204.325	113.969	C.3	1	LIG1	0.000	
5	  C8	-18.897	204.678	114.751	C.3	1	LIG1	0.000	
6	  C9	-18.714	205.103	116.075	C.3	1	LIG1	0.000	
7	 C11	-13.264	205.089	123.086	C.3	1	LIG1	0.000	
8	 C12	-12.090	205.790	122.766	C.3	1	LIG1	0.000	
9	 C13	-11.034	205.814	123.682	C.3	1	LIG1	0.000	
10	 C14	-11.137	205.149	124.898	C.3	1	LIG1	0.000	
11	 C15	-12.300	204.439	125.217	C.3	1	LIG1	0.000	
12	 C16	-13.363	204.404	124.311	C.3	1	LIG1	0.000	
13	  N1	-14.892	204.957	118.568	N.3	1	LIG1	0.000	
14	  N2	-12.659	204.619	119.611	N.3	1	LIG1	0.000	
15	  C1	-14.472	205.928	120.989	C.3	1	LIG1	0.000	
16	  C2	-13.901	205.143	119.683	C.3	1	LIG1	0.000	
17	  C3	-16.246	205.561	118.791	C.3	1	LIG1	0.000	
18	  S1	-16.362	206.351	120.505	S.3	1	LIG1	0.000	
19	  N3	-17.361	205.574	117.995	N.3	1	LIG1	0.000	
20	  N4	-14.468	202.731	114.663	N.3	1	LIG1	0.000	
21	  O1	-15.522	202.977	112.522	O.3	1	LIG1	0.000	
22	  O2	-14.089	204.820	113.518	O.3	1	LIG1	0.000	
23	  S2	-15.085	203.789	113.629	S.o2	1	LIG1	0.000	
24	 C10	-14.423	204.992	122.162	C.3	1	LIG1	0.000	
25	  O3	-15.190	204.048	122.323	O.3	1	LIG1	0.000	
@<TRIPOS>BOND
1 1 2 1
2 1 6 1
3 1 19 1
4 2 3 1
5 3 4 1
6 3 23 1
7 4 5 1
8 5 6 1
9 7 8 1
10 7 12 1
11 7 24 1
12 8 9 1
13 9 10 1
14 10 11 1
15 11 12 1
16 13 16 1
17 13 17 1
18 14 16 1
19 15 16 1
20 15 18 1
21 15 24 1
22 17 18 1
23 17 19 1
24 20 23 1
25 21 23 1
26 22 23 1
27 24 25 1
@<TRIPOS>SUBSTRUCTURE
1	LIG1	1	GROUP	1 ****	LIG
