# created with PyMOL 2.5.0
@<TRIPOS>MOLECULE
MOL
49 52 1                 
SMALL
USER_CHARGES
@<TRIPOS>ATOM
1	 H21	-0.223	9.463	27.582	 H	1	UNK0	0.000	
2	 H05	3.663	12.190	22.665	 H	1	UNK0	0.000	
3	 H07	2.043	12.123	25.001	 H	1	UNK0	0.000	
4	 H19	2.479	6.702	30.667	 H	1	UNK0	0.000	
5	 H20	1.625	6.022	29.332	 H	1	UNK0	0.000	
6	 H18	3.922	7.270	25.977	 H	1	UNK0	0.000	
7	 H04	2.422	10.976	23.133	 H	1	UNK0	0.000	
8	 H03	9.271	8.155	24.310	 H	1	UNK0	0.000	
9	 H10	5.339	12.960	24.363	 H	1	UNK0	0.000	
10	 H02	7.716	7.353	24.325	 H	1	UNK0	0.000	
11	 H08	3.175	14.204	25.535	 H	1	UNK0	0.000	
12	 H01	8.403	12.535	23.503	 H	1	UNK0	0.000	
13	 H09	2.910	14.127	23.769	 H	1	UNK0	0.000	
14	 H06	3.727	11.773	25.508	 H	1	UNK0	0.000	
15	 H13	4.484	16.433	24.785	 H	1	UNK0	0.000	
16	 H12	5.201	16.583	26.408	 H	1	UNK0	0.000	
17	 H11	3.708	15.641	26.177	 H	1	UNK0	0.000	
18	 H14	5.514	14.066	26.392	 H	1	UNK0	0.000	
19	 H17	7.218	15.943	25.646	 H	1	UNK0	0.000	
20	 H16	6.964	15.260	24.021	 H	1	UNK0	0.000	
21	 H15	7.600	14.234	25.329	 H	1	UNK0	0.000	
22	  N1	4.388	10.443	23.561	N.pl3	1	UNK0	0.000	
23	  C1	5.700	10.657	23.621	C.2	1	UNK0	0.000	
24	  N2	6.478	11.739	23.494	N.2	1	UNK0	0.000	
25	  C2	7.791	11.640	23.610	C.2	1	UNK0	0.000	
26	  N3	8.380	10.482	23.852	N.2	1	UNK0	0.000	
27	  C3	7.664	9.357	23.986	C.2	1	UNK0	0.000	
28	  N4	8.265	8.196	24.226	N.pl3	1	UNK0	0.000	
29	  C4	6.281	9.418	23.870	C.2	1	UNK0	0.000	
30	  N5	5.313	8.509	23.942	N.2	1	UNK0	0.000	
31	  C5	4.162	9.145	23.746	C.2	1	UNK0	0.000	
32	  C6	3.349	11.472	23.422	C.3	1	UNK0	0.000	
33	  C7	3.097	12.215	24.736	C.3	1	UNK0	0.000	
34	  C8	3.452	13.698	24.611	C.3	1	UNK0	0.000	
35	  N6	4.898	13.868	24.393	N.3	1	UNK0	0.000	
36	  C9	4.662	15.920	25.730	C.3	1	UNK0	0.000	
37	 C10	5.495	14.661	25.479	C.3	1	UNK0	0.000	
38	 C11	6.922	15.053	25.091	C.3	1	UNK0	0.000	
39	  S1	2.584	8.389	23.726	S.3	1	UNK0	0.000	
40	 C12	2.179	8.409	25.428	C.2	1	UNK0	0.000	
41	 C13	3.011	7.754	26.330	C.2	1	UNK0	0.000	
42	 C14	2.685	7.716	27.681	C.2	1	UNK0	0.000	
43	  O1	3.296	7.147	28.756	O.3	1	UNK0	0.000	
44	 C15	2.190	6.904	29.635	C.3	1	UNK0	0.000	
45	  O2	1.421	8.103	29.468	O.3	1	UNK0	0.000	
46	 C16	1.520	8.329	28.130	C.2	1	UNK0	0.000	
47	 C17	0.690	8.983	27.228	C.2	1	UNK0	0.000	
48	 C18	1.017	9.029	25.876	C.2	1	UNK0	0.000	
49	 Br1	-0.107	9.981	24.684	Br	1	UNK0	0.000	
@<TRIPOS>BOND
1 22 23 1
2 22 31 1
3 22 32 1
4 23 24 1
5 23 29 2
6 24 25 2
7 12 25 1
8 25 26 1
9 26 27 2
10 27 28 1
11 27 29 1
12 8 28 1
13 10 28 1
14 29 30 1
15 30 31 2
16 31 39 1
17 2 32 1
18 7 32 1
19 32 33 1
20 3 33 1
21 14 33 1
22 33 34 1
23 11 34 1
24 13 34 1
25 34 35 1
26 9 35 1
27 35 37 1
28 15 36 1
29 16 36 1
30 17 36 1
31 36 37 1
32 18 37 1
33 37 38 1
34 19 38 1
35 20 38 1
36 21 38 1
37 39 40 1
38 40 41 1
39 40 48 2
40 6 41 1
41 41 42 2
42 42 43 1
43 42 46 1
44 43 44 1
45 4 44 1
46 5 44 1
47 44 45 1
48 45 46 1
49 46 47 2
50 1 47 1
51 47 48 1
52 48 49 1
@<TRIPOS>SUBSTRUCTURE
1	UNK0	1	GROUP	1 ****	UNK
