# created with PyMOL 2.5.0
@<TRIPOS>MOLECULE
MOL
49 52 1                 
SMALL
USER_CHARGES
@<TRIPOS>ATOM
1	 H21	-0.443	11.369	25.188	 H	1	UNK0	0.000	
2	 H05	6.429	10.780	22.206	 H	1	UNK0	0.000	
3	 H07	8.919	11.136	23.769	 H	1	UNK0	0.000	
4	 H19	0.339	7.830	28.551	 H	1	UNK0	0.000	
5	 H20	0.274	7.495	26.860	 H	1	UNK0	0.000	
6	 H18	3.947	9.079	25.417	 H	1	UNK0	0.000	
7	 H04	7.631	12.118	22.208	 H	1	UNK0	0.000	
8	 H03	4.184	16.531	26.446	 H	1	UNK0	0.000	
9	 H10	6.199	9.368	22.554	 H	1	UNK0	0.000	
10	 H02	3.265	15.186	25.807	 H	1	UNK0	0.000	
11	 H08	8.603	8.609	23.937	 H	1	UNK0	0.000	
12	 H01	8.497	15.765	25.265	 H	1	UNK0	0.000	
13	 H09	8.779	9.267	22.283	 H	1	UNK0	0.000	
14	 H06	7.501	10.567	24.707	 H	1	UNK0	0.000	
15	 H13	7.681	6.213	23.830	 H	1	UNK0	0.000	
16	 H12	6.999	6.510	25.447	 H	1	UNK0	0.000	
17	 H11	8.246	7.598	24.793	 H	1	UNK0	0.000	
18	 H14	5.920	8.544	24.682	 H	1	UNK0	0.000	
19	 H17	4.845	6.288	24.200	 H	1	UNK0	0.000	
20	 H16	5.483	6.415	22.543	 H	1	UNK0	0.000	
21	 H15	4.303	7.608	23.137	 H	1	UNK0	0.000	
22	  N1	6.100	12.301	23.606	N.pl3	1	UNK0	0.000	
23	  C1	6.414	13.434	24.228	C.2	1	UNK0	0.000	
24	  N2	7.555	14.103	24.435	N.2	1	UNK0	0.000	
25	  C2	7.555	15.239	25.110	C.2	1	UNK0	0.000	
26	  N3	6.442	15.754	25.600	N.2	1	UNK0	0.000	
27	  C3	5.263	15.136	25.436	C.2	1	UNK0	0.000	
28	  N4	4.148	15.660	25.937	N.pl3	1	UNK0	0.000	
29	  C4	5.220	13.939	24.735	C.2	1	UNK0	0.000	
30	  N5	4.241	13.099	24.412	N.2	1	UNK0	0.000	
31	  C5	4.791	12.099	23.728	C.2	1	UNK0	0.000	
32	  C6	7.016	11.461	22.823	C.3	1	UNK0	0.000	
33	  C7	7.949	10.640	23.716	C.3	1	UNK0	0.000	
34	  C8	8.141	9.225	23.166	C.3	1	UNK0	0.000	
35	  N6	6.845	8.631	22.799	N.3	1	UNK0	0.000	
36	  C9	7.383	6.982	24.543	C.3	1	UNK0	0.000	
37	 C10	6.293	7.858	23.922	C.3	1	UNK0	0.000	
38	 C11	5.149	6.979	23.414	C.3	1	UNK0	0.000	
39	  S1	3.924	10.720	23.089	S.3	1	UNK0	0.000	
40	 C12	2.717	10.474	24.332	C.2	1	UNK0	0.000	
41	 C13	2.982	9.585	25.368	C.2	1	UNK0	0.000	
42	 C14	2.020	9.338	26.340	C.2	1	UNK0	0.000	
43	  O1	2.007	8.524	27.431	O.3	1	UNK0	0.000	
44	 C15	0.608	8.243	27.579	C.3	1	UNK0	0.000	
45	  O2	0.028	9.526	27.308	O.3	1	UNK0	0.000	
46	 C16	0.787	9.979	26.273	C.2	1	UNK0	0.000	
47	 C17	0.524	10.868	25.239	C.2	1	UNK0	0.000	
48	 C18	1.487	11.122	24.267	C.2	1	UNK0	0.000	
49	 Br1	1.117	12.385	22.904	Br	1	UNK0	0.000	
@<TRIPOS>BOND
1 22 23 1
2 22 31 1
3 22 32 1
4 23 24 1
5 23 29 2
6 24 25 2
7 12 25 1
8 25 26 1
9 26 27 2
10 27 28 1
11 27 29 1
12 8 28 1
13 10 28 1
14 29 30 1
15 30 31 2
16 31 39 1
17 2 32 1
18 7 32 1
19 32 33 1
20 3 33 1
21 14 33 1
22 33 34 1
23 11 34 1
24 13 34 1
25 34 35 1
26 9 35 1
27 35 37 1
28 15 36 1
29 16 36 1
30 17 36 1
31 36 37 1
32 18 37 1
33 37 38 1
34 19 38 1
35 20 38 1
36 21 38 1
37 39 40 1
38 40 41 1
39 40 48 2
40 6 41 1
41 41 42 2
42 42 43 1
43 42 46 1
44 43 44 1
45 4 44 1
46 5 44 1
47 44 45 1
48 45 46 1
49 46 47 2
50 1 47 1
51 47 48 1
52 48 49 1
@<TRIPOS>SUBSTRUCTURE
1	UNK0	1	GROUP	1 ****	UNK
