# created with PyMOL 2.5.0
@<TRIPOS>MOLECULE
MOL
49 52 1                 
SMALL
USER_CHARGES
@<TRIPOS>ATOM
1	 H21	7.950	13.684	24.280	 H	1	UNK0	0.000	
2	 H05	3.557	9.946	25.732	 H	1	UNK0	0.000	
3	 H07	2.658	7.976	24.168	 H	1	UNK0	0.000	
4	 H19	4.906	17.180	26.000	 H	1	UNK0	0.000	
5	 H20	4.890	16.675	24.351	 H	1	UNK0	0.000	
6	 H18	3.074	12.834	24.531	 H	1	UNK0	0.000	
7	 H04	1.933	9.729	26.474	 H	1	UNK0	0.000	
8	 H03	-1.734	13.315	21.731	 H	1	UNK0	0.000	
9	 H10	1.145	9.019	26.963	 H	1	UNK0	0.000	
10	 H02	-0.036	13.122	21.357	 H	1	UNK0	0.000	
11	 H08	1.583	6.486	26.256	 H	1	UNK0	0.000	
12	 H01	-2.471	10.858	25.474	 H	1	UNK0	0.000	
13	 H09	0.673	7.161	24.873	 H	1	UNK0	0.000	
14	 H06	3.426	7.656	25.756	 H	1	UNK0	0.000	
15	 H13	1.401	6.686	29.338	 H	1	UNK0	0.000	
16	 H12	0.608	8.214	29.794	 H	1	UNK0	0.000	
17	 H11	1.957	8.223	28.634	 H	1	UNK0	0.000	
18	 H14	-0.878	7.867	28.145	 H	1	UNK0	0.000	
19	 H17	-0.206	5.428	28.347	 H	1	UNK0	0.000	
20	 H16	0.923	5.690	26.996	 H	1	UNK0	0.000	
21	 H15	-0.828	5.882	26.743	 H	1	UNK0	0.000	
22	  N1	1.924	10.384	24.498	N.pl3	1	UNK0	0.000	
23	  C1	0.652	10.767	24.433	C.2	1	UNK0	0.000	
24	  N2	-0.436	10.529	25.175	N.2	1	UNK0	0.000	
25	  C2	-1.599	11.067	24.854	C.2	1	UNK0	0.000	
26	  N3	-1.732	11.852	23.800	N.2	1	UNK0	0.000	
27	  C3	-0.687	12.130	23.008	C.2	1	UNK0	0.000	
28	  N4	-0.831	12.919	21.947	N.pl3	1	UNK0	0.000	
29	  C4	0.553	11.583	23.310	C.2	1	UNK0	0.000	
30	  N5	1.752	11.656	22.739	N.2	1	UNK0	0.000	
31	  C5	2.580	10.915	23.470	C.2	1	UNK0	0.000	
32	  C6	2.537	9.596	25.576	C.3	1	UNK0	0.000	
33	  C7	2.571	8.101	25.248	C.3	1	UNK0	0.000	
34	  C8	1.301	7.399	25.731	C.3	1	UNK0	0.000	
35	  N6	0.549	8.263	26.656	N.3	1	UNK0	0.000	
36	  C9	1.087	7.667	28.982	C.3	1	UNK0	0.000	
37	 C10	0.097	7.497	27.827	C.3	1	UNK0	0.000	
38	 C11	-0.011	6.018	27.452	C.3	1	UNK0	0.000	
39	  S1	4.279	10.668	23.128	S.3	1	UNK0	0.000	
40	 C12	4.981	12.093	23.862	C.2	1	UNK0	0.000	
41	 C13	4.147	13.020	24.478	C.2	1	UNK0	0.000	
42	 C14	4.677	14.182	25.026	C.2	1	UNK0	0.000	
43	  O1	4.103	15.241	25.660	O.3	1	UNK0	0.000	
44	 C15	5.024	16.301	25.366	C.3	1	UNK0	0.000	
45	  O2	6.285	15.635	25.517	O.3	1	UNK0	0.000	
46	 C16	6.045	14.421	24.952	C.2	1	UNK0	0.000	
47	 C17	6.878	13.495	24.337	C.2	1	UNK0	0.000	
48	 C18	6.351	12.327	23.793	C.2	1	UNK0	0.000	
49	 Br1	7.523	11.058	23.015	Br	1	UNK0	0.000	
@<TRIPOS>BOND
1 22 23 1
2 22 31 1
3 22 32 1
4 23 24 1
5 23 29 2
6 24 25 2
7 12 25 1
8 25 26 1
9 26 27 2
10 27 28 1
11 27 29 1
12 8 28 1
13 10 28 1
14 29 30 1
15 30 31 2
16 31 39 1
17 2 32 1
18 7 32 1
19 32 33 1
20 3 33 1
21 14 33 1
22 33 34 1
23 11 34 1
24 13 34 1
25 34 35 1
26 9 35 1
27 35 37 1
28 15 36 1
29 16 36 1
30 17 36 1
31 36 37 1
32 18 37 1
33 37 38 1
34 19 38 1
35 20 38 1
36 21 38 1
37 39 40 1
38 40 41 1
39 40 48 2
40 6 41 1
41 41 42 2
42 42 43 1
43 42 46 1
44 43 44 1
45 4 44 1
46 5 44 1
47 44 45 1
48 45 46 1
49 46 47 2
50 1 47 1
51 47 48 1
52 48 49 1
@<TRIPOS>SUBSTRUCTURE
1	UNK0	1	GROUP	1 ****	UNK
