# created with PyMOL 2.5.0
@<TRIPOS>MOLECULE
MOL
42 44 1                 
SMALL
USER_CHARGES
@<TRIPOS>ATOM
1	 H06	6.742	11.487	21.805	 H	1	UNK0	0.000	
2	 H07	8.633	12.962	23.916	 H	1	UNK0	0.000	
3	 H11	5.528	7.974	25.234	 H	1	UNK0	0.000	
4	 H12	4.517	7.513	23.819	 H	1	UNK0	0.000	
5	 H09	5.889	16.480	26.026	 H	1	UNK0	0.000	
6	 H01	6.131	8.260	22.594	 H	1	UNK0	0.000	
7	 H14	0.932	5.191	22.281	 H	1	UNK0	0.000	
8	 H15	0.016	8.193	23.456	 H	1	UNK0	0.000	
9	 H05	8.372	10.467	21.174	 H	1	UNK0	0.000	
10	 H03	8.394	7.878	22.983	 H	1	UNK0	0.000	
11	 H10	2.227	13.070	24.361	 H	1	UNK0	0.000	
12	 H02	7.337	9.457	25.116	 H	1	UNK0	0.000	
13	 H13	2.306	11.218	23.148	 H	1	UNK0	0.000	
14	 H04	8.830	10.874	23.571	 H	1	UNK0	0.000	
15	 H08	4.164	16.679	26.233	 H	1	UNK0	0.000	
16	  C1	6.033	8.955	23.428	C.3	1	UNK0	0.000	
17	  O1	5.570	10.335	23.122	O.3	1	UNK0	0.000	
18	  C2	7.390	9.207	24.057	C.3	1	UNK0	0.000	
19	  O2	8.219	8.035	23.914	O.3	1	UNK0	0.000	
20	  C3	7.985	10.344	23.130	C.3	1	UNK0	0.000	
21	  O3	8.415	9.787	21.850	O.3	1	UNK0	0.000	
22	  C4	6.701	11.165	22.845	C.3	1	UNK0	0.000	
23	  N1	6.589	12.411	23.720	N.pl3	1	UNK0	0.000	
24	  C5	7.584	13.177	24.119	C.2	1	UNK0	0.000	
25	  N2	7.182	14.200	24.771	N.2	1	UNK0	0.000	
26	  C6	5.793	14.094	24.795	C.2	1	UNK0	0.000	
27	  C7	4.736	14.909	25.323	C.2	1	UNK0	0.000	
28	  N3	4.948	16.130	25.913	N.pl3	1	UNK0	0.000	
29	  N4	3.481	14.485	25.140	N.2	1	UNK0	0.000	
30	  C8	3.268	13.368	24.480	C.2	1	UNK0	0.000	
31	  N5	4.176	12.560	23.940	N.2	1	UNK0	0.000	
32	  C9	5.424	12.981	24.137	C.2	1	UNK0	0.000	
33	 C10	5.009	8.332	24.344	C.3	1	UNK0	0.000	
34	  O4	4.005	9.285	24.768	O.3	1	UNK0	0.000	
35	  P1	2.639	9.404	23.936	P.3	1	UNK0	0.000	
36	  O5	1.513	9.525	24.920	O.co2	1	UNK0	0.000	
37	  O6	2.736	10.408	22.867	O.3	1	UNK0	0.000	
38	  O7	2.520	7.918	23.282	O.3	1	UNK0	0.000	
39	  P2	1.462	6.777	23.483	P.3	1	UNK0	0.000	
40	  O8	1.285	6.072	22.138	O.3	1	UNK0	0.000	
41	  O9	0.242	7.445	24.015	O.3	1	UNK0	0.000	
42	 O10	2.231	5.897	24.512	O.co2	1	UNK0	0.000	
@<TRIPOS>BOND
1 6 16 1
2 16 17 1
3 16 18 1
4 16 33 1
5 17 22 1
6 12 18 1
7 18 19 1
8 18 20 1
9 10 19 1
10 14 20 1
11 20 21 1
12 20 22 1
13 9 21 1
14 1 22 1
15 22 23 1
16 23 24 1
17 23 32 1
18 2 24 1
19 24 25 2
20 25 26 1
21 26 27 2
22 26 32 1
23 27 28 1
24 27 29 1
25 5 28 1
26 15 28 1
27 29 30 2
28 11 30 1
29 30 31 1
30 31 32 2
31 3 33 1
32 4 33 1
33 33 34 1
34 34 35 1
35 35 36 2
36 35 37 1
37 35 38 1
38 13 37 1
39 38 39 1
40 39 40 1
41 39 41 1
42 39 42 2
43 7 40 1
44 8 41 1
@<TRIPOS>SUBSTRUCTURE
1	UNK0	1	GROUP	1 ****	UNK
