# created with PyMOL 2.5.0
@<TRIPOS>MOLECULE
BDB33240
43 45 1                 
SMALL
USER_CHARGES
@<TRIPOS>ATOM
1	 H05	2.771	10.080	22.609	 H	1	UNK0	0.000	
2	 H06	3.583	8.742	22.657	 H	1	UNK0	0.000	
3	 H10	1.114	8.519	27.008	 H	1	UNK0	0.000	
4	 H11	0.154	6.989	28.883	 H	1	UNK0	0.000	
5	 H08	4.352	6.925	19.289	 H	1	UNK0	0.000	
6	 H09	4.100	6.307	20.907	 H	1	UNK0	0.000	
7	 H13	2.614	8.713	28.864	 H	1	UNK0	0.000	
8	 H14	2.188	7.984	30.430	 H	1	UNK0	0.000	
9	 H04	5.513	13.633	24.651	 H	1	UNK0	0.000	
10	 H15	2.474	6.946	29.012	 H	1	UNK0	0.000	
11	 H02	-0.684	13.539	20.323	 H	1	UNK0	0.000	
12	 H01	1.495	10.623	25.980	 H	1	UNK0	0.000	
13	 H03	-2.304	13.146	20.853	 H	1	UNK0	0.000	
14	 H12	0.034	8.521	29.766	 H	1	UNK0	0.000	
15	 H07	4.978	7.684	22.825	 H	1	UNK0	0.000	
16	  C1	1.114	11.946	23.487	C.2	1	UNK0	0.000	
17	  N1	0.555	12.495	22.404	N.2	1	UNK0	0.000	
18	  C2	-0.770	12.521	22.194	C.2	1	UNK0	0.000	
19	  N2	-1.629	11.995	23.062	N.2	1	UNK0	0.000	
20	  C3	0.209	11.394	24.397	C.2	1	UNK0	0.000	
21	  C4	0.486	10.766	25.593	C.2	1	UNK0	0.000	
22	  C5	-1.150	11.436	24.155	C.2	1	UNK0	0.000	
23	  S1	-2.045	10.712	25.385	S.3	1	UNK0	0.000	
24	  C6	-0.654	10.335	26.251	C.2	1	UNK0	0.000	
25	  N3	-1.306	13.129	21.006	N.pl3	1	UNK0	0.000	
26	  C7	2.706	11.985	23.608	C.2	1	UNK0	0.000	
27	  C8	5.525	11.746	23.659	C.2	1	UNK0	0.000	
28	  C9	4.906	12.849	24.200	C.2	1	UNK0	0.000	
29	 C10	3.527	12.984	24.184	C.2	1	UNK0	0.000	
30	 C11	3.362	10.874	23.064	C.2	1	UNK0	0.000	
31	 C12	4.753	10.755	23.089	C.2	1	UNK0	0.000	
32	 Cl1	7.238	11.613	23.697	Cl	1	UNK0	0.000	
33	 Cl2	3.052	14.437	24.919	Cl	1	UNK0	0.000	
34	  O1	5.426	9.672	22.562	O.3	1	UNK0	0.000	
35	 C13	4.600	8.564	22.306	C.3	1	UNK0	0.000	
36	 C14	4.628	8.343	20.820	C.2	1	UNK0	0.000	
37	  N4	4.332	7.071	20.288	N.pl3	1	UNK0	0.000	
38	  O2	4.912	9.276	20.062	O.2	1	UNK0	0.000	
39	 C15	-0.581	9.641	27.542	C.2	1	UNK0	0.000	
40	  N5	0.451	8.697	27.749	N.pl3	1	UNK0	0.000	
41	  O3	-1.404	9.874	28.434	O.2	1	UNK0	0.000	
42	 C16	0.574	7.990	28.983	C.3	1	UNK0	0.000	
43	 C17	2.073	7.901	29.349	C.3	1	UNK0	0.000	
@<TRIPOS>BOND
1 16 17 1
2 16 20 2
3 16 26 1
4 17 18 2
5 18 19 1
6 18 25 1
7 19 22 2
8 20 21 1
9 20 22 1
10 12 21 1
11 21 24 2
12 22 23 1
13 23 24 1
14 24 39 1
15 11 25 1
16 13 25 1
17 26 29 2
18 26 30 1
19 27 28 2
20 27 31 1
21 27 32 1
22 9 28 1
23 28 29 1
24 29 33 1
25 1 30 1
26 30 31 2
27 31 34 1
28 34 35 1
29 2 35 1
30 15 35 1
31 35 36 1
32 36 37 1
33 36 38 2
34 5 37 1
35 6 37 1
36 39 40 1
37 39 41 2
38 3 40 1
39 40 42 1
40 4 42 1
41 14 42 1
42 42 43 1
43 7 43 1
44 8 43 1
45 10 43 1
@<TRIPOS>SUBSTRUCTURE
1	UNK0	1	GROUP	1 ****	UNK
