# created with PyMOL 2.5.0
@<TRIPOS>MOLECULE
ZINC14884725
71 76 1                 
SMALL
USER_CHARGES
@<TRIPOS>ATOM
1	 H03	2.884	9.778	25.349	 H	1	UNK0	0.000	
2	 H05	4.896	8.845	25.750	 H	1	UNK0	0.000	
3	 H04	4.281	8.061	27.294	 H	1	UNK0	0.000	
4	 H10	8.988	8.996	23.969	 H	1	UNK0	0.000	
5	 H09	8.092	7.131	24.771	 H	1	UNK0	0.000	
6	 H08	6.239	5.563	25.083	 H	1	UNK0	0.000	
7	 H06	4.017	6.054	23.845	 H	1	UNK0	0.000	
8	 H19	0.151	5.960	26.021	 H	1	UNK0	0.000	
9	 H18	1.129	7.864	23.213	 H	1	UNK0	0.000	
10	 H13	7.330	10.472	20.483	 H	1	UNK0	0.000	
11	 H16	3.152	9.228	24.212	 H	1	UNK0	0.000	
12	 H15	2.895	9.075	22.450	 H	1	UNK0	0.000	
13	 H26	-0.014	8.845	27.755	 H	1	UNK0	0.000	
14	 H14	4.577	7.369	22.257	 H	1	UNK0	0.000	
15	 H07	6.251	5.657	23.299	 H	1	UNK0	0.000	
16	 H12	9.002	10.720	22.142	 H	1	UNK0	0.000	
17	 H35	-0.221	14.027	22.287	 H	1	UNK0	0.000	
18	 H22	5.924	10.525	24.535	 H	1	UNK0	0.000	
19	 H25	-1.522	8.750	26.814	 H	1	UNK0	0.000	
20	 H24	5.121	5.262	25.992	 H	1	UNK0	0.000	
21	 H23	5.198	11.022	22.988	 H	1	UNK0	0.000	
22	 H34	1.443	14.209	22.889	 H	1	UNK0	0.000	
23	 H29	-1.723	13.529	22.635	 H	1	UNK0	0.000	
24	 H28	-2.819	12.760	23.808	 H	1	UNK0	0.000	
25	 H27	-0.625	10.284	26.904	 H	1	UNK0	0.000	
26	 H30	-2.351	11.892	22.327	 H	1	UNK0	0.000	
27	 H33	-1.458	10.777	25.447	 H	1	UNK0	0.000	
28	 H32	-1.569	10.004	23.841	 H	1	UNK0	0.000	
29	 H31	0.810	9.687	23.730	 H	1	UNK0	0.000	
30	 H17	2.447	6.585	23.118	 H	1	UNK0	0.000	
31	 H21	4.216	10.159	24.195	 H	1	UNK0	0.000	
32	 H11	7.857	10.267	24.489	 H	1	UNK0	0.000	
33	 H36	0.075	14.795	23.865	 H	1	UNK0	0.000	
34	 H20	-0.106	4.739	24.402	 H	1	UNK0	0.000	
35	 H01	1.537	7.979	27.091	 H	1	UNK0	0.000	
36	 H02	2.741	9.622	27.136	 H	1	UNK0	0.000	
37	  C1	0.273	8.802	25.614	C.3	1	UNK0	0.000	
38	  C2	1.616	8.232	26.034	C.3	1	UNK0	0.000	
39	  C3	2.829	9.087	26.191	C.3	1	UNK0	0.000	
40	  C4	4.114	8.262	26.237	C.3	1	UNK0	0.000	
41	  C5	4.081	6.901	25.578	C.3	1	UNK0	0.000	
42	  C6	4.707	6.801	24.237	C.3	1	UNK0	0.000	
43	  C7	6.112	6.220	24.222	C.3	1	UNK0	0.000	
44	  C8	7.137	7.319	24.281	C.2	1	UNK0	0.000	
45	  C9	6.912	8.476	23.765	C.2	1	UNK0	0.000	
46	 C10	8.045	9.495	23.743	C.3	1	UNK0	0.000	
47	 C11	8.123	10.121	22.380	C.2	1	UNK0	0.000	
48	 C12	7.187	9.990	21.450	C.2	1	UNK0	0.000	
49	 C13	5.964	9.215	21.685	C.2	1	UNK0	0.000	
50	  O1	5.267	8.841	20.771	O.2	1	UNK0	0.000	
51	 C14	5.621	8.913	23.135	C.3	1	UNK0	0.000	
52	 C15	4.518	7.881	23.218	C.3	1	UNK0	0.000	
53	 C16	3.133	8.538	23.369	C.3	1	UNK0	0.000	
54	 C17	2.069	7.481	23.611	C.3	1	UNK0	0.000	
55	 C18	1.823	7.065	25.033	C.3	1	UNK0	0.000	
56	  O2	2.804	6.266	25.630	O.3	1	UNK0	0.000	
57	 C19	0.377	6.509	25.107	C.3	1	UNK0	0.000	
58	  O3	-0.413	7.716	24.940	O.3	1	UNK0	0.000	
59	  O4	0.145	5.593	24.041	O.3	1	UNK0	0.000	
60	 C20	5.211	10.251	23.758	C.3	1	UNK0	0.000	
61	  O5	4.886	6.073	26.448	O.3	1	UNK0	0.000	
62	 C21	-0.530	9.199	26.862	C.3	1	UNK0	0.000	
63	 C22	-2.011	12.585	23.097	C.3	1	UNK0	0.000	
64	 C23	-0.827	11.995	23.818	C.2	1	UNK0	0.000	
65	 C24	0.314	12.674	23.849	C.2	1	UNK0	0.000	
66	 C25	1.487	12.111	24.541	C.2	1	UNK0	0.000	
67	  O6	2.583	12.625	24.444	O.co2	1	UNK0	0.000	
68	  O7	1.296	10.996	25.293	O.3	1	UNK0	0.000	
69	 C26	0.405	10.013	24.688	C.3	1	UNK0	0.000	
70	 C27	-0.970	10.652	24.481	C.3	1	UNK0	0.000	
71	 C28	0.409	14.019	23.176	C.3	1	UNK0	0.000	
@<TRIPOS>BOND
1 37 38 1
2 37 58 1
3 37 62 1
4 37 69 1
5 35 38 1
6 38 39 1
7 38 55 1
8 1 39 1
9 36 39 1
10 39 40 1
11 2 40 1
12 3 40 1
13 40 41 1
14 41 42 1
15 41 56 1
16 41 61 1
17 7 42 1
18 42 43 1
19 42 52 1
20 6 43 1
21 15 43 1
22 43 44 1
23 5 44 1
24 44 45 2
25 45 46 1
26 45 51 1
27 4 46 1
28 32 46 1
29 46 47 1
30 16 47 1
31 47 48 2
32 10 48 1
33 48 49 1
34 49 50 2
35 49 51 1
36 51 52 1
37 51 60 1
38 14 52 1
39 52 53 1
40 11 53 1
41 12 53 1
42 53 54 1
43 9 54 1
44 30 54 1
45 54 55 1
46 55 56 1
47 55 57 1
48 8 57 1
49 57 58 1
50 57 59 1
51 34 59 1
52 18 60 1
53 21 60 1
54 31 60 1
55 20 61 1
56 13 62 1
57 19 62 1
58 25 62 1
59 23 63 1
60 24 63 1
61 26 63 1
62 63 64 1
63 64 65 2
64 64 70 1
65 65 66 1
66 65 71 1
67 66 67 2
68 66 68 1
69 68 69 1
70 29 69 1
71 69 70 1
72 27 70 1
73 28 70 1
74 17 71 1
75 22 71 1
76 33 71 1
@<TRIPOS>SUBSTRUCTURE
1	UNK0	1	GROUP	1 ****	UNK
