# created with PyMOL 2.5.0
@<TRIPOS>MOLECULE
ZINC03832016
42 44 1                 
SMALL
USER_CHARGES
@<TRIPOS>ATOM
1	 H19	-1.170	11.550	26.195	 H	1	UNK0	0.000	
2	 H08	8.278	6.831	23.843	 H	1	UNK0	0.000	
3	 H02	3.973	15.402	25.810	 H	1	UNK0	0.000	
4	 H18	-0.865	10.902	27.824	 H	1	UNK0	0.000	
5	 H04	8.117	11.598	22.349	 H	1	UNK0	0.000	
6	 H03	5.036	16.715	26.265	 H	1	UNK0	0.000	
7	 H07	7.327	7.491	25.195	 H	1	UNK0	0.000	
8	 H06	8.972	8.095	24.886	 H	1	UNK0	0.000	
9	 H01	9.178	15.549	24.709	 H	1	UNK0	0.000	
10	 H05	6.649	10.649	22.015	 H	1	UNK0	0.000	
11	 H11	4.548	9.976	23.837	 H	1	UNK0	0.000	
12	 H10	8.227	10.345	24.684	 H	1	UNK0	0.000	
13	 H09	6.912	8.504	22.635	 H	1	UNK0	0.000	
14	 H12	4.257	10.767	22.270	 H	1	UNK0	0.000	
15	 H16	2.850	9.853	25.443	 H	1	UNK0	0.000	
16	 H15	-0.833	11.966	24.824	 H	1	UNK0	0.000	
17	 H14	0.141	13.074	22.840	 H	1	UNK0	0.000	
18	 H17	-1.602	9.867	26.579	 H	1	UNK0	0.000	
19	 H13	2.466	12.580	22.164	 H	1	UNK0	0.000	
20	  N1	6.446	12.109	23.507	N.pl3	1	UNK0	0.000	
21	  C1	5.109	12.033	23.762	C.2	1	UNK0	0.000	
22	  N2	4.721	13.090	24.417	N.2	1	UNK0	0.000	
23	  C2	5.779	13.913	24.613	C.2	1	UNK0	0.000	
24	  C3	6.899	13.293	24.032	C.2	1	UNK0	0.000	
25	  N3	8.077	13.905	24.089	N.2	1	UNK0	0.000	
26	  C4	8.198	15.075	24.680	C.2	1	UNK0	0.000	
27	  N4	7.175	15.695	25.240	N.2	1	UNK0	0.000	
28	  C5	5.959	15.160	25.233	C.2	1	UNK0	0.000	
29	  N5	4.893	15.818	25.822	N.pl3	1	UNK0	0.000	
30	  C6	7.250	11.112	22.798	C.3	1	UNK0	0.000	
31	  C7	8.057	7.728	24.421	C.3	1	UNK0	0.000	
32	  C8	7.497	8.790	23.510	C.2	1	UNK0	0.000	
33	  C9	7.713	10.056	23.768	C.2	1	UNK0	0.000	
34	 C10	4.214	10.893	23.352	C.3	1	UNK0	0.000	
35	 C11	2.797	11.193	23.767	C.2	1	UNK0	0.000	
36	 C12	2.038	12.090	23.038	C.2	1	UNK0	0.000	
37	 C13	0.737	12.367	23.417	C.2	1	UNK0	0.000	
38	 C14	0.192	11.747	24.525	C.2	1	UNK0	0.000	
39	 C15	0.951	10.846	25.257	C.2	1	UNK0	0.000	
40	 C16	2.254	10.566	24.873	C.2	1	UNK0	0.000	
41	  O1	0.417	10.235	26.347	O.3	1	UNK0	0.000	
42	 C17	-0.882	10.664	26.761	C.3	1	UNK0	0.000	
@<TRIPOS>BOND
1 20 21 1
2 20 24 1
3 20 30 1
4 21 22 2
5 21 34 1
6 22 23 1
7 23 24 2
8 23 28 1
9 24 25 1
10 25 26 2
11 9 26 1
12 26 27 1
13 27 28 2
14 28 29 1
15 3 29 1
16 6 29 1
17 5 30 1
18 10 30 1
19 30 33 1
20 2 31 1
21 7 31 1
22 8 31 1
23 31 32 1
24 13 32 1
25 32 33 2
26 12 33 1
27 11 34 1
28 14 34 1
29 34 35 1
30 35 36 2
31 35 40 1
32 19 36 1
33 36 37 1
34 17 37 1
35 37 38 2
36 16 38 1
37 38 39 1
38 39 40 2
39 39 41 1
40 15 40 1
41 41 42 1
42 1 42 1
43 4 42 1
44 18 42 1
@<TRIPOS>SUBSTRUCTURE
1	UNK0	1	GROUP	1 ****	UNK
