# created with PyMOL 2.5.0
@<TRIPOS>MOLECULE
ZINC00038397
41 42 1                 
SMALL
USER_CHARGES
@<TRIPOS>ATOM
1	 H12	8.932	13.835	24.049	 H	1	UNK0	0.000	
2	 H17	3.307	13.883	25.733	 H	1	UNK0	0.000	
3	 H01	4.820	11.545	23.098	 H	1	UNK0	0.000	
4	 H18	2.936	14.633	24.161	 H	1	UNK0	0.000	
5	 H03	2.835	6.205	22.285	 H	1	UNK0	0.000	
6	 H02	1.130	6.707	22.373	 H	1	UNK0	0.000	
7	 H06	0.659	6.908	25.573	 H	1	UNK0	0.000	
8	 H05	-0.320	7.930	24.494	 H	1	UNK0	0.000	
9	 H07	0.239	8.569	26.058	 H	1	UNK0	0.000	
10	 H04	1.870	5.829	23.733	 H	1	UNK0	0.000	
11	 H10	8.054	10.785	22.837	 H	1	UNK0	0.000	
12	 H09	5.986	6.744	21.561	 H	1	UNK0	0.000	
13	 H08	5.514	6.758	23.245	 H	1	UNK0	0.000	
14	 H11	7.952	11.368	24.515	 H	1	UNK0	0.000	
15	 H15	4.530	15.198	25.861	 H	1	UNK0	0.000	
16	 H14	6.588	16.343	26.609	 H	1	UNK0	0.000	
17	 H13	8.783	15.670	25.697	 H	1	UNK0	0.000	
18	 H16	2.426	12.960	24.492	 H	1	UNK0	0.000	
19	  N1	4.990	10.642	23.516	N.pl3	1	UNK0	0.000	
20	  C1	6.244	10.276	23.846	C.2	1	UNK0	0.000	
21	  O1	6.447	9.191	24.349	O.2	1	UNK0	0.000	
22	  C2	2.046	6.563	22.946	C.3	1	UNK0	0.000	
23	  C3	2.462	7.873	23.565	C.2	1	UNK0	0.000	
24	  C4	1.752	8.436	24.559	C.2	1	UNK0	0.000	
25	  S1	2.658	9.927	24.916	S.3	1	UNK0	0.000	
26	  C5	3.931	9.777	23.751	C.2	1	UNK0	0.000	
27	  C6	3.639	8.577	23.114	C.2	1	UNK0	0.000	
28	  C7	0.496	7.925	25.217	C.3	1	UNK0	0.000	
29	  C8	4.483	8.053	22.037	C.2	1	UNK0	0.000	
30	  O2	4.351	8.471	20.901	O.2	1	UNK0	0.000	
31	  N2	5.405	7.106	22.303	N.pl3	1	UNK0	0.000	
32	  C9	7.395	11.215	23.591	C.3	1	UNK0	0.000	
33	  O3	6.892	12.469	23.124	O.3	1	UNK0	0.000	
34	 C10	6.812	13.478	24.032	C.2	1	UNK0	0.000	
35	 C11	7.962	14.131	24.449	C.2	1	UNK0	0.000	
36	 C12	7.878	15.158	25.371	C.2	1	UNK0	0.000	
37	 C13	6.649	15.536	25.879	C.2	1	UNK0	0.000	
38	 C14	5.499	14.892	25.465	C.2	1	UNK0	0.000	
39	 C15	5.576	13.858	24.545	C.2	1	UNK0	0.000	
40	  O4	4.445	13.221	24.140	O.3	1	UNK0	0.000	
41	 C16	3.206	13.703	24.662	C.3	1	UNK0	0.000	
@<TRIPOS>BOND
1 3 19 1
2 19 20 1
3 19 26 1
4 20 21 2
5 20 32 1
6 5 22 1
7 6 22 1
8 10 22 1
9 22 23 1
10 23 24 2
11 23 27 1
12 24 25 1
13 24 28 1
14 25 26 1
15 26 27 2
16 27 29 1
17 7 28 1
18 8 28 1
19 9 28 1
20 29 30 2
21 29 31 1
22 12 31 1
23 13 31 1
24 11 32 1
25 14 32 1
26 32 33 1
27 33 34 1
28 34 35 2
29 34 39 1
30 1 35 1
31 35 36 1
32 17 36 1
33 36 37 2
34 16 37 1
35 37 38 1
36 15 38 1
37 38 39 2
38 39 40 1
39 40 41 1
40 2 41 1
41 4 41 1
42 18 41 1
@<TRIPOS>SUBSTRUCTURE
1	UNK0	1	GROUP	1 ****	UNK
