# created with PyMOL 2.5.0
@<TRIPOS>MOLECULE
data/FXA/cocry_dataset/1f0r_815_LIG.pdb
31 35 1                 
SMALL
USER_CHARGES
@<TRIPOS>ATOM
1	  N1	6.104	3.514	21.441	N.pl3	1	UNK0	0.000	
2	  C1	6.775	4.657	21.005	C.2	1	UNK0	0.000	
3	  O1	7.837	4.689	20.404	O.2	1	UNK0	0.000	
4	  C2	5.975	5.853	21.507	C.3	1	UNK0	0.000	
5	  C3	4.582	5.248	21.622	C.3	1	UNK0	0.000	
6	  C4	4.871	3.843	22.107	C.3	1	UNK0	0.000	
7	  N2	6.023	7.069	20.686	N.3	1	UNK0	0.000	
8	  S1	5.907	8.553	21.472	S.o2	1	UNK0	0.000	
9	  O2	6.125	9.585	20.487	O.2	1	UNK0	0.000	
10	  O3	4.699	8.533	22.270	O.2	1	UNK0	0.000	
11	  C5	7.223	8.708	22.653	C.2	1	UNK0	0.000	
12	  C6	8.470	9.302	22.593	C.2	1	UNK0	0.000	
13	  C7	9.262	9.021	23.744	C.2	1	UNK0	0.000	
14	  C8	8.560	8.266	24.683	C.2	1	UNK0	0.000	
15	  C9	9.195	7.828	25.853	C.2	1	UNK0	0.000	
16	 C10	10.537	8.156	26.009	C.2	1	UNK0	0.000	
17	 C11	11.153	8.926	25.038	C.2	1	UNK0	0.000	
18	  N3	10.562	9.388	23.916	N.2	1	UNK0	0.000	
19	  S2	6.947	7.982	24.174	S.3	1	UNK0	0.000	
20	 C12	6.692	2.187	21.515	C.3	1	UNK0	0.000	
21	 C13	5.603	1.204	19.450	C.2	1	UNK0	0.000	
22	 C14	5.664	0.520	18.232	C.2	1	UNK0	0.000	
23	 C15	6.891	0.086	17.708	C.2	1	UNK0	0.000	
24	 C16	8.081	0.342	18.420	C.2	1	UNK0	0.000	
25	 C17	7.997	1.055	19.646	C.2	1	UNK0	0.000	
26	 C18	6.766	1.485	20.175	C.2	1	UNK0	0.000	
27	 C19	9.281	-0.145	17.853	C.2	1	UNK0	0.000	
28	  N4	9.348	-0.798	16.676	N.2	1	UNK0	0.000	
29	 C20	8.189	-1.009	16.021	C.2	1	UNK0	0.000	
30	 C21	6.954	-0.601	16.491	C.2	1	UNK0	0.000	
31	  N5	10.517	0.011	18.493	N.pl3	1	UNK0	0.000	
@<TRIPOS>BOND
1 1 2 1
2 1 6 1
3 1 20 1
4 2 3 2
5 2 4 1
6 4 5 1
7 4 7 1
8 5 6 1
9 7 8 1
10 8 9 2
11 8 10 2
12 8 11 1
13 11 12 2
14 11 19 1
15 12 13 1
16 13 14 1
17 13 18 2
18 14 15 2
19 14 19 1
20 15 16 1
21 16 17 2
22 17 18 1
23 20 26 1
24 21 22 1
25 21 26 2
26 22 23 2
27 23 24 1
28 23 30 1
29 24 25 2
30 24 27 1
31 25 26 1
32 27 28 2
33 27 31 1
34 28 29 1
35 29 30 2
@<TRIPOS>SUBSTRUCTURE
1	UNK0	1	GROUP	1 ****	UNK
