# created with PyMOL 2.5.0
@<TRIPOS>MOLECULE
data/FXA/cocry_dataset/1f0r_815_LIG.pdb
31 35 1                 
SMALL
USER_CHARGES
@<TRIPOS>ATOM
1	  N1	6.074	7.364	23.611	N.pl3	1	UNK0	0.000	
2	  C1	6.729	6.585	22.656	C.2	1	UNK0	0.000	
3	  O1	7.894	6.695	22.307	O.2	1	UNK0	0.000	
4	  C2	5.687	5.640	22.071	C.3	1	UNK0	0.000	
5	  C3	4.695	5.546	23.222	C.3	1	UNK0	0.000	
6	  C4	4.705	6.953	23.783	C.3	1	UNK0	0.000	
7	  N2	6.170	4.336	21.602	N.3	1	UNK0	0.000	
8	  S1	5.597	3.770	20.124	S.o2	1	UNK0	0.000	
9	  O2	4.317	3.149	20.363	O.2	1	UNK0	0.000	
10	  O3	5.733	4.843	19.162	O.2	1	UNK0	0.000	
11	  C5	6.666	2.488	19.520	C.2	1	UNK0	0.000	
12	  C6	7.974	2.146	19.809	C.2	1	UNK0	0.000	
13	  C7	8.477	1.136	18.938	C.2	1	UNK0	0.000	
14	  C8	7.503	0.690	18.045	C.2	1	UNK0	0.000	
15	  C9	7.826	-0.252	17.060	C.2	1	UNK0	0.000	
16	 C10	9.145	-0.688	17.006	C.2	1	UNK0	0.000	
17	 C11	10.045	-0.210	17.944	C.2	1	UNK0	0.000	
18	  N3	9.758	0.674	18.921	N.2	1	UNK0	0.000	
19	  S2	5.996	1.457	18.334	S.3	1	UNK0	0.000	
20	 C12	6.574	8.622	24.138	C.3	1	UNK0	0.000	
21	 C13	9.018	9.251	23.922	C.2	1	UNK0	0.000	
22	 C14	10.355	9.156	24.321	C.2	1	UNK0	0.000	
23	 C15	10.730	8.348	25.405	C.2	1	UNK0	0.000	
24	 C16	9.745	7.619	26.102	C.2	1	UNK0	0.000	
25	 C17	8.390	7.746	25.691	C.2	1	UNK0	0.000	
26	 C18	8.015	8.551	24.601	C.2	1	UNK0	0.000	
27	 C19	10.191	6.801	27.167	C.2	1	UNK0	0.000	
28	  N4	11.476	6.712	27.561	N.2	1	UNK0	0.000	
29	 C20	12.383	7.435	26.876	C.2	1	UNK0	0.000	
30	 C21	12.067	8.249	25.804	C.2	1	UNK0	0.000	
31	  N5	9.308	5.999	27.900	N.pl3	1	UNK0	0.000	
@<TRIPOS>BOND
1 1 2 1
2 1 6 1
3 1 20 1
4 2 3 2
5 2 4 1
6 4 5 1
7 4 7 1
8 5 6 1
9 7 8 1
10 8 9 2
11 8 10 2
12 8 11 1
13 11 12 2
14 11 19 1
15 12 13 1
16 13 14 1
17 13 18 2
18 14 15 2
19 14 19 1
20 15 16 1
21 16 17 2
22 17 18 1
23 20 26 1
24 21 22 1
25 21 26 2
26 22 23 2
27 23 24 1
28 23 30 1
29 24 25 2
30 24 27 1
31 25 26 1
32 27 28 2
33 27 31 1
34 28 29 1
35 29 30 2
@<TRIPOS>SUBSTRUCTURE
1	UNK0	1	GROUP	1 ****	UNK
