# created with PyMOL 2.5.0
@<TRIPOS>MOLECULE
data/FXA/cocry_dataset/1f0r_815_LIG.pdb
50 54 1                 
SMALL
USER_CHARGES
@<TRIPOS>ATOM
1	 H10	12.201	9.181	25.192	 H	1	UNK0	0.000	
2	 H11	6.047	1.586	22.157	 H	1	UNK0	0.000	
3	 H15	8.913	1.276	20.193	 H	1	UNK0	0.000	
4	 H16	8.227	-1.533	15.066	 H	1	UNK0	0.000	
5	 H17	6.047	-0.810	15.924	 H	1	UNK0	0.000	
6	 H04	4.939	3.770	23.193	 H	1	UNK0	0.000	
7	 H18	10.568	0.485	19.383	 H	1	UNK0	0.000	
8	 H19	11.357	-0.351	18.065	 H	1	UNK0	0.000	
9	 H05	4.075	3.157	21.819	 H	1	UNK0	0.000	
10	 H13	4.636	1.522	19.840	 H	1	UNK0	0.000	
11	 H03	3.973	5.796	22.341	 H	1	UNK0	0.000	
12	 H02	4.019	5.278	20.689	 H	1	UNK0	0.000	
13	 H14	4.745	0.320	17.682	 H	1	UNK0	0.000	
14	 H01	6.382	6.257	22.434	 H	1	UNK0	0.000	
15	 H08	8.659	7.254	26.609	 H	1	UNK0	0.000	
16	 H07	8.809	9.916	21.759	 H	1	UNK0	0.000	
17	 H06	6.900	7.060	20.185	 H	1	UNK0	0.000	
18	 H09	11.094	7.813	26.881	 H	1	UNK0	0.000	
19	 H12	7.701	2.278	21.915	 H	1	UNK0	0.000	
20	  N1	6.104	3.514	21.441	N.pl3	1	UNK0	0.000	
21	  C1	6.775	4.657	21.005	C.2	1	UNK0	0.000	
22	  O1	7.837	4.689	20.404	O.2	1	UNK0	0.000	
23	  C2	5.975	5.853	21.507	C.3	1	UNK0	0.000	
24	  C3	4.582	5.248	21.622	C.3	1	UNK0	0.000	
25	  C4	4.871	3.843	22.107	C.3	1	UNK0	0.000	
26	  N2	6.023	7.069	20.686	N.3	1	UNK0	0.000	
27	  S1	5.907	8.553	21.472	S.o2	1	UNK0	0.000	
28	  O2	6.125	9.585	20.487	O.2	1	UNK0	0.000	
29	  O3	4.699	8.533	22.270	O.2	1	UNK0	0.000	
30	  C5	7.223	8.708	22.653	C.2	1	UNK0	0.000	
31	  C6	8.470	9.302	22.593	C.2	1	UNK0	0.000	
32	  C7	9.262	9.021	23.744	C.2	1	UNK0	0.000	
33	  C8	8.560	8.266	24.683	C.2	1	UNK0	0.000	
34	  C9	9.195	7.828	25.853	C.2	1	UNK0	0.000	
35	 C10	10.537	8.156	26.009	C.2	1	UNK0	0.000	
36	 C11	11.153	8.926	25.038	C.2	1	UNK0	0.000	
37	  N3	10.562	9.388	23.916	N.2	1	UNK0	0.000	
38	  S2	6.947	7.982	24.174	S.3	1	UNK0	0.000	
39	 C12	6.692	2.187	21.515	C.3	1	UNK0	0.000	
40	 C13	5.603	1.204	19.450	C.2	1	UNK0	0.000	
41	 C14	5.664	0.520	18.232	C.2	1	UNK0	0.000	
42	 C15	6.891	0.086	17.708	C.2	1	UNK0	0.000	
43	 C16	8.081	0.342	18.420	C.2	1	UNK0	0.000	
44	 C17	7.997	1.055	19.646	C.2	1	UNK0	0.000	
45	 C18	6.766	1.485	20.175	C.2	1	UNK0	0.000	
46	 C19	9.281	-0.145	17.853	C.2	1	UNK0	0.000	
47	  N4	9.348	-0.798	16.676	N.2	1	UNK0	0.000	
48	 C20	8.189	-1.009	16.021	C.2	1	UNK0	0.000	
49	 C21	6.954	-0.601	16.491	C.2	1	UNK0	0.000	
50	  N5	10.517	0.011	18.493	N.pl3	1	UNK0	0.000	
@<TRIPOS>BOND
1 20 21 1
2 20 25 1
3 21 22 2
4 21 23 1
5 14 23 1
6 23 24 1
7 23 26 1
8 11 24 1
9 12 24 1
10 24 25 1
11 6 25 1
12 9 25 1
13 17 26 1
14 26 27 1
15 27 28 2
16 27 29 2
17 27 30 1
18 30 31 2
19 30 38 1
20 16 31 1
21 31 32 1
22 32 33 1
23 32 37 2
24 33 34 2
25 33 38 1
26 15 34 1
27 34 35 1
28 18 35 1
29 35 36 2
30 1 36 1
31 36 37 1
32 2 39 1
33 19 39 1
34 20 39 1
35 10 40 1
36 40 41 1
37 40 45 2
38 13 41 1
39 41 42 2
40 42 43 1
41 42 49 1
42 43 44 2
43 43 46 1
44 3 44 1
45 44 45 1
46 39 45 1
47 46 47 2
48 46 50 1
49 47 48 1
50 4 48 1
51 48 49 2
52 5 49 1
53 7 50 1
54 8 50 1
@<TRIPOS>SUBSTRUCTURE
1	UNK0	1	GROUP	1 ****	UNK
