# created with PyMOL 2.5.0
@<TRIPOS>MOLECULE
data/FXA/cocry_dataset/1f0r_815_LIG.pdb
31 35 1                 
SMALL
USER_CHARGES
@<TRIPOS>ATOM
1	  N1	5.033	3.519	20.075	N.pl3	1	UNK0	0.000	
2	  C1	5.331	4.856	19.812	C.2	1	UNK0	0.000	
3	  O1	5.366	5.388	18.714	O.2	1	UNK0	0.000	
4	  C2	5.695	5.495	21.147	C.3	1	UNK0	0.000	
5	  C3	4.935	4.603	22.118	C.3	1	UNK0	0.000	
6	  C4	5.072	3.233	21.485	C.3	1	UNK0	0.000	
7	  N2	5.392	6.923	21.298	N.3	1	UNK0	0.000	
8	  S1	6.584	8.030	20.866	S.o2	1	UNK0	0.000	
9	  O2	7.403	7.414	19.850	O.2	1	UNK0	0.000	
10	  O3	5.935	9.301	20.625	O.2	1	UNK0	0.000	
11	  C5	7.654	8.328	22.251	C.2	1	UNK0	0.000	
12	  C6	8.804	9.080	22.401	C.2	1	UNK0	0.000	
13	  C7	9.425	8.877	23.669	C.2	1	UNK0	0.000	
14	  C8	8.683	8.016	24.476	C.2	1	UNK0	0.000	
15	  C9	9.167	7.638	25.735	C.2	1	UNK0	0.000	
16	 C10	10.408	8.134	26.114	C.2	1	UNK0	0.000	
17	 C11	11.070	9.000	25.261	C.2	1	UNK0	0.000	
18	  N3	10.618	9.406	24.056	N.2	1	UNK0	0.000	
19	  S2	7.228	7.537	23.704	S.3	1	UNK0	0.000	
20	 C12	5.002	2.465	19.075	C.3	1	UNK0	0.000	
21	 C13	7.437	2.117	19.680	C.2	1	UNK0	0.000	
22	 C14	8.680	1.506	19.486	C.2	1	UNK0	0.000	
23	 C15	8.860	0.536	18.488	C.2	1	UNK0	0.000	
24	 C16	7.773	0.172	17.667	C.2	1	UNK0	0.000	
25	 C17	6.515	0.793	17.895	C.2	1	UNK0	0.000	
26	 C18	6.335	1.769	18.891	C.2	1	UNK0	0.000	
27	 C19	8.027	-0.790	16.662	C.2	1	UNK0	0.000	
28	  N4	9.219	-1.388	16.475	N.2	1	UNK0	0.000	
29	 C20	10.227	-1.021	17.291	C.2	1	UNK0	0.000	
30	 C21	10.103	-0.074	18.290	C.2	1	UNK0	0.000	
31	  N5	7.034	-1.194	15.760	N.pl3	1	UNK0	0.000	
@<TRIPOS>BOND
1 1 2 1
2 1 6 1
3 1 20 1
4 2 3 2
5 2 4 1
6 4 5 1
7 4 7 1
8 5 6 1
9 7 8 1
10 8 9 2
11 8 10 2
12 8 11 1
13 11 12 2
14 11 19 1
15 12 13 1
16 13 14 1
17 13 18 2
18 14 15 2
19 14 19 1
20 15 16 1
21 16 17 2
22 17 18 1
23 20 26 1
24 21 22 1
25 21 26 2
26 22 23 2
27 23 24 1
28 23 30 1
29 24 25 2
30 24 27 1
31 25 26 1
32 27 28 2
33 27 31 1
34 28 29 1
35 29 30 2
@<TRIPOS>SUBSTRUCTURE
1	UNK0	1	GROUP	1 ****	UNK
