# created with PyMOL 2.5.0
@<TRIPOS>MOLECULE
data/FXA/cocry_dataset/1f0s_PR2_LIG.pdb
46 50 1                 
SMALL
USER_CHARGES
@<TRIPOS>ATOM
1	 H12	6.229	8.437	21.694	 H	1	UNK0	0.000	
2	 H09	11.133	-0.228	17.815	 H	1	UNK0	0.000	
3	 H04	4.537	4.480	24.104	 H	1	UNK0	0.000	
4	 H10	8.126	1.856	21.021	 H	1	UNK0	0.000	
5	 H15	11.391	9.583	26.354	 H	1	UNK0	0.000	
6	 H11	5.350	8.771	23.217	 H	1	UNK0	0.000	
7	 H13	8.584	9.433	22.221	 H	1	UNK0	0.000	
8	 H17	8.790	6.694	27.042	 H	1	UNK0	0.000	
9	 H05	3.145	4.565	23.066	 H	1	UNK0	0.000	
10	 H14	11.097	9.748	23.834	 H	1	UNK0	0.000	
11	 H03	4.091	6.818	24.252	 H	1	UNK0	0.000	
12	 H02	3.368	6.911	22.678	 H	1	UNK0	0.000	
13	 H01	4.508	4.534	20.999	 H	1	UNK0	0.000	
14	 H16	12.182	8.152	25.523	 H	1	UNK0	0.000	
15	 H08	9.693	-0.980	15.997	 H	1	UNK0	0.000	
16	 H07	7.208	-0.647	16.173	 H	1	UNK0	0.000	
17	 H06	6.556	3.278	21.916	 H	1	UNK0	0.000	
18	  C1	5.020	4.592	21.960	C.3	1	UNK0	0.000	
19	  C2	6.013	5.739	21.944	C.2	1	UNK0	0.000	
20	  O1	7.079	5.780	21.354	O.2	1	UNK0	0.000	
21	  N1	5.482	6.772	22.688	N.pl3	1	UNK0	0.000	
22	  C3	4.189	6.453	23.229	C.3	1	UNK0	0.000	
23	  C4	4.163	4.935	23.187	C.3	1	UNK0	0.000	
24	  N2	5.560	3.228	22.077	N.3	1	UNK0	0.000	
25	  S1	4.924	2.063	21.021	S.o2	1	UNK0	0.000	
26	  O2	3.986	2.704	20.129	O.2	1	UNK0	0.000	
27	  O3	4.542	0.936	21.843	O.2	1	UNK0	0.000	
28	  C5	7.394	0.326	18.114	C.2	1	UNK0	0.000	
29	  C6	7.880	-0.311	16.963	C.2	1	UNK0	0.000	
30	  C7	9.256	-0.497	16.871	C.2	1	UNK0	0.000	
31	  C8	10.061	-0.057	17.907	C.2	1	UNK0	0.000	
32	  N3	9.626	0.564	19.019	N.2	1	UNK0	0.000	
33	  C9	8.282	0.757	19.100	C.2	1	UNK0	0.000	
34	 C10	7.612	1.416	20.166	C.2	1	UNK0	0.000	
35	 C11	6.242	1.438	20.004	C.2	1	UNK0	0.000	
36	  S2	5.770	0.682	18.544	S.3	1	UNK0	0.000	
37	 C12	6.051	8.103	22.716	C.3	1	UNK0	0.000	
38	 C13	7.347	8.115	23.471	C.2	1	UNK0	0.000	
39	 C14	8.442	8.835	23.121	C.2	1	UNK0	0.000	
40	 C15	9.366	8.639	24.189	C.2	1	UNK0	0.000	
41	 C16	10.578	9.073	24.514	C.2	1	UNK0	0.000	
42	 C17	11.256	8.660	25.790	C.3	1	UNK0	0.000	
43	  N4	10.496	7.767	26.682	N.2	1	UNK0	0.000	
44	 C18	9.320	7.358	26.360	C.2	1	UNK0	0.000	
45	 C19	8.662	7.754	25.102	C.2	1	UNK0	0.000	
46	  N5	7.466	7.427	24.688	N.2	1	UNK0	0.000	
@<TRIPOS>BOND
1 13 18 1
2 18 19 1
3 18 23 1
4 18 24 1
5 19 20 2
6 19 21 1
7 21 22 1
8 21 37 1
9 11 22 1
10 12 22 1
11 22 23 1
12 3 23 1
13 9 23 1
14 17 24 1
15 24 25 1
16 25 26 2
17 25 27 2
18 28 29 1
19 28 33 2
20 28 36 1
21 16 29 1
22 29 30 2
23 15 30 1
24 30 31 1
25 2 31 1
26 31 32 2
27 32 33 1
28 33 34 1
29 4 34 1
30 34 35 2
31 25 35 1
32 35 36 1
33 1 37 1
34 6 37 1
35 37 38 1
36 38 39 2
37 38 46 1
38 7 39 1
39 39 40 1
40 40 41 2
41 40 45 1
42 10 41 1
43 41 42 1
44 5 42 1
45 14 42 1
46 42 43 1
47 43 44 2
48 8 44 1
49 44 45 1
50 45 46 2
@<TRIPOS>SUBSTRUCTURE
1	UNK0	1	GROUP	1 ****	UNK
