# created with PyMOL 2.5.0
@<TRIPOS>MOLECULE
data/FXA/cocry_dataset/1f0s_PR2_LIG.pdb
29 33 1                 
SMALL
USER_CHARGES
@<TRIPOS>ATOM
1	  C1	5.020	4.592	21.960	C.3	1	UNK0	0.000	
2	  C2	6.013	5.739	21.944	C.2	1	UNK0	0.000	
3	  O1	7.079	5.780	21.354	O.2	1	UNK0	0.000	
4	  N1	5.482	6.772	22.688	N.pl3	1	UNK0	0.000	
5	  C3	4.189	6.453	23.229	C.3	1	UNK0	0.000	
6	  C4	4.163	4.935	23.187	C.3	1	UNK0	0.000	
7	  N2	5.560	3.228	22.077	N.3	1	UNK0	0.000	
8	  S1	4.924	2.063	21.021	S.o2	1	UNK0	0.000	
9	  O2	3.986	2.704	20.129	O.2	1	UNK0	0.000	
10	  O3	4.542	0.936	21.843	O.2	1	UNK0	0.000	
11	  C5	7.394	0.326	18.114	C.2	1	UNK0	0.000	
12	  C6	7.880	-0.311	16.963	C.2	1	UNK0	0.000	
13	  C7	9.256	-0.497	16.871	C.2	1	UNK0	0.000	
14	  C8	10.061	-0.057	17.907	C.2	1	UNK0	0.000	
15	  N3	9.626	0.564	19.019	N.2	1	UNK0	0.000	
16	  C9	8.282	0.757	19.100	C.2	1	UNK0	0.000	
17	 C10	7.612	1.416	20.166	C.2	1	UNK0	0.000	
18	 C11	6.242	1.438	20.004	C.2	1	UNK0	0.000	
19	  S2	5.770	0.682	18.544	S.3	1	UNK0	0.000	
20	 C12	6.051	8.103	22.716	C.3	1	UNK0	0.000	
21	 C13	7.347	8.115	23.471	C.2	1	UNK0	0.000	
22	 C14	8.442	8.835	23.121	C.2	1	UNK0	0.000	
23	 C15	9.366	8.639	24.189	C.2	1	UNK0	0.000	
24	 C16	10.578	9.073	24.514	C.2	1	UNK0	0.000	
25	 C17	11.256	8.660	25.790	C.3	1	UNK0	0.000	
26	  N4	10.496	7.767	26.682	N.2	1	UNK0	0.000	
27	 C18	9.320	7.358	26.360	C.2	1	UNK0	0.000	
28	 C19	8.662	7.754	25.102	C.2	1	UNK0	0.000	
29	  N5	7.466	7.427	24.688	N.2	1	UNK0	0.000	
@<TRIPOS>BOND
1 1 2 1
2 1 6 1
3 1 7 1
4 2 3 2
5 2 4 1
6 4 5 1
7 4 20 1
8 5 6 1
9 7 8 1
10 8 9 2
11 8 10 2
12 8 18 1
13 11 12 1
14 11 16 2
15 11 19 1
16 12 13 2
17 13 14 1
18 14 15 2
19 15 16 1
20 16 17 1
21 17 18 2
22 18 19 1
23 20 21 1
24 21 22 2
25 21 29 1
26 22 23 1
27 23 24 2
28 23 28 1
29 24 25 1
30 25 26 1
31 26 27 2
32 27 28 1
33 28 29 2
@<TRIPOS>SUBSTRUCTURE
1	UNK0	1	GROUP	1 ****	UNK
