# created with PyMOL 2.5.0
@<TRIPOS>MOLECULE
data/FXA/cocry_dataset/1f0s_PR2_LIG.pdb
46 50 1                 
SMALL
USER_CHARGES
@<TRIPOS>ATOM
1	 H12	6.477	8.614	21.361	 H	1	UNK0	0.000	
2	 H09	9.488	-1.737	16.221	 H	1	UNK0	0.000	
3	 H04	5.033	4.471	23.554	 H	1	UNK0	0.000	
4	 H10	5.364	0.430	17.623	 H	1	UNK0	0.000	
5	 H15	11.334	9.604	26.379	 H	1	UNK0	0.000	
6	 H11	5.511	8.962	22.826	 H	1	UNK0	0.000	
7	 H13	8.795	9.602	22.074	 H	1	UNK0	0.000	
8	 H17	8.677	6.718	26.813	 H	1	UNK0	0.000	
9	 H05	3.414	4.699	22.961	 H	1	UNK0	0.000	
10	 H14	11.202	9.847	23.851	 H	1	UNK0	0.000	
11	 H03	4.717	6.753	24.168	 H	1	UNK0	0.000	
12	 H02	3.597	7.079	22.884	 H	1	UNK0	0.000	
13	 H01	4.164	4.999	20.620	 H	1	UNK0	0.000	
14	 H16	12.168	8.192	25.556	 H	1	UNK0	0.000	
15	 H08	11.218	-0.786	17.653	 H	1	UNK0	0.000	
16	 H07	10.601	0.994	19.317	 H	1	UNK0	0.000	
17	 H06	6.435	3.609	21.111	 H	1	UNK0	0.000	
18	  C1	4.919	4.915	21.402	C.3	1	UNK0	0.000	
19	  C2	5.906	6.062	21.288	C.2	1	UNK0	0.000	
20	  O1	6.773	6.204	20.443	O.2	1	UNK0	0.000	
21	  N1	5.630	6.963	22.296	N.pl3	1	UNK0	0.000	
22	  C3	4.522	6.550	23.115	C.3	1	UNK0	0.000	
23	  C4	4.438	5.057	22.853	C.3	1	UNK0	0.000	
24	  N2	5.427	3.556	21.161	N.3	1	UNK0	0.000	
25	  S1	4.883	2.776	19.757	S.o2	1	UNK0	0.000	
26	  O2	4.583	3.773	18.756	O.2	1	UNK0	0.000	
27	  O3	3.895	1.809	20.186	O.2	1	UNK0	0.000	
28	  C5	8.502	0.924	18.736	C.2	1	UNK0	0.000	
29	  C6	9.850	0.540	18.670	C.2	1	UNK0	0.000	
30	  C7	10.187	-0.443	17.746	C.2	1	UNK0	0.000	
31	  C8	9.193	-0.978	16.946	C.2	1	UNK0	0.000	
32	  N3	7.892	-0.638	16.990	N.2	1	UNK0	0.000	
33	  C9	7.562	0.313	17.905	C.2	1	UNK0	0.000	
34	 C10	6.248	0.799	18.144	C.2	1	UNK0	0.000	
35	 C11	6.210	1.788	19.104	C.2	1	UNK0	0.000	
36	  S2	7.766	2.110	19.737	S.3	1	UNK0	0.000	
37	 C12	6.226	8.280	22.367	C.3	1	UNK0	0.000	
38	 C13	7.472	8.258	23.203	C.2	1	UNK0	0.000	
39	 C14	8.592	8.979	22.945	C.2	1	UNK0	0.000	
40	 C15	9.445	8.743	24.063	C.2	1	UNK0	0.000	
41	 C16	10.636	9.156	24.476	C.2	1	UNK0	0.000	
42	 C17	11.229	8.700	25.779	C.3	1	UNK0	0.000	
43	  N4	10.409	7.787	26.594	N.2	1	UNK0	0.000	
44	 C18	9.253	7.398	26.186	C.2	1	UNK0	0.000	
45	 C19	8.678	7.837	24.902	C.2	1	UNK0	0.000	
46	  N5	7.509	7.533	24.403	N.2	1	UNK0	0.000	
@<TRIPOS>BOND
1 13 18 1
2 18 19 1
3 18 23 1
4 18 24 1
5 19 20 2
6 19 21 1
7 21 22 1
8 21 37 1
9 11 22 1
10 12 22 1
11 22 23 1
12 3 23 1
13 9 23 1
14 17 24 1
15 24 25 1
16 25 26 2
17 25 27 2
18 28 29 1
19 28 33 2
20 28 36 1
21 16 29 1
22 29 30 2
23 15 30 1
24 30 31 1
25 2 31 1
26 31 32 2
27 32 33 1
28 33 34 1
29 4 34 1
30 34 35 2
31 25 35 1
32 35 36 1
33 1 37 1
34 6 37 1
35 37 38 1
36 38 39 2
37 38 46 1
38 7 39 1
39 39 40 1
40 40 41 2
41 40 45 1
42 10 41 1
43 41 42 1
44 5 42 1
45 14 42 1
46 42 43 1
47 43 44 2
48 8 44 1
49 44 45 1
50 45 46 2
@<TRIPOS>SUBSTRUCTURE
1	UNK0	1	GROUP	1 ****	UNK
