# created with PyMOL 2.5.0
@<TRIPOS>MOLECULE
data/FXA/cocry_dataset/1f0s_PR2_LIG.pdb
29 33 1                 
SMALL
USER_CHARGES
@<TRIPOS>ATOM
1	  C1	5.407	4.649	21.336	C.3	1	UNK0	0.000	
2	  C2	5.088	5.533	22.527	C.2	1	UNK0	0.000	
3	  O1	4.520	5.205	23.554	O.2	1	UNK0	0.000	
4	  N1	5.595	6.790	22.272	N.pl3	1	UNK0	0.000	
5	  C3	6.253	6.871	20.996	C.3	1	UNK0	0.000	
6	  C4	5.678	5.687	20.237	C.3	1	UNK0	0.000	
7	  N2	4.372	3.700	20.899	N.3	1	UNK0	0.000	
8	  S1	4.650	2.060	21.234	S.o2	1	UNK0	0.000	
9	  O2	3.476	1.303	20.867	O.2	1	UNK0	0.000	
10	  O3	5.200	2.007	22.571	O.2	1	UNK0	0.000	
11	  C5	7.126	0.448	18.261	C.2	1	UNK0	0.000	
12	  C6	7.614	-0.144	17.087	C.2	1	UNK0	0.000	
13	  C7	8.991	-0.315	16.985	C.2	1	UNK0	0.000	
14	  C8	9.795	0.094	18.034	C.2	1	UNK0	0.000	
15	  N3	9.358	0.672	19.169	N.2	1	UNK0	0.000	
16	  C9	8.012	0.851	19.260	C.2	1	UNK0	0.000	
17	 C10	7.340	1.466	20.350	C.2	1	UNK0	0.000	
18	 C11	5.970	1.483	20.192	C.2	1	UNK0	0.000	
19	  S2	5.499	0.775	18.707	S.3	1	UNK0	0.000	
20	 C12	5.669	7.833	23.273	C.3	1	UNK0	0.000	
21	 C13	7.052	7.927	23.847	C.2	1	UNK0	0.000	
22	 C14	8.038	8.726	23.366	C.2	1	UNK0	0.000	
23	 C15	9.111	8.584	24.295	C.2	1	UNK0	0.000	
24	 C16	10.323	9.097	24.461	C.2	1	UNK0	0.000	
25	 C17	11.195	8.719	25.625	C.3	1	UNK0	0.000	
26	  N4	10.626	7.766	26.594	N.2	1	UNK0	0.000	
27	 C18	9.447	7.280	26.426	C.2	1	UNK0	0.000	
28	 C19	8.599	7.642	25.277	C.2	1	UNK0	0.000	
29	  N5	7.383	7.237	25.022	N.2	1	UNK0	0.000	
@<TRIPOS>BOND
1 1 2 1
2 1 6 1
3 1 7 1
4 2 3 2
5 2 4 1
6 4 5 1
7 4 20 1
8 5 6 1
9 7 8 1
10 8 9 2
11 8 10 2
12 8 18 1
13 11 12 1
14 11 16 2
15 11 19 1
16 12 13 2
17 13 14 1
18 14 15 2
19 15 16 1
20 16 17 1
21 17 18 2
22 18 19 1
23 20 21 1
24 21 22 2
25 21 29 1
26 22 23 1
27 23 24 2
28 23 28 1
29 24 25 1
30 25 26 1
31 26 27 2
32 27 28 1
33 28 29 2
@<TRIPOS>SUBSTRUCTURE
1	UNK0	1	GROUP	1 ****	UNK
