# created with PyMOL 2.5.0
@<TRIPOS>MOLECULE
data/FXA/cocry_dataset/1f0s_PR2_LIG.pdb
29 33 1                 
SMALL
USER_CHARGES
@<TRIPOS>ATOM
1	  C1	4.919	4.915	21.402	C.3	1	UNK0	0.000	
2	  C2	5.906	6.062	21.288	C.2	1	UNK0	0.000	
3	  O1	6.773	6.204	20.443	O.2	1	UNK0	0.000	
4	  N1	5.630	6.963	22.296	N.pl3	1	UNK0	0.000	
5	  C3	4.522	6.550	23.115	C.3	1	UNK0	0.000	
6	  C4	4.438	5.057	22.853	C.3	1	UNK0	0.000	
7	  N2	5.427	3.556	21.161	N.3	1	UNK0	0.000	
8	  S1	4.883	2.776	19.757	S.o2	1	UNK0	0.000	
9	  O2	4.583	3.773	18.756	O.2	1	UNK0	0.000	
10	  O3	3.895	1.809	20.186	O.2	1	UNK0	0.000	
11	  C5	8.502	0.924	18.736	C.2	1	UNK0	0.000	
12	  C6	9.850	0.540	18.670	C.2	1	UNK0	0.000	
13	  C7	10.187	-0.443	17.746	C.2	1	UNK0	0.000	
14	  C8	9.193	-0.978	16.946	C.2	1	UNK0	0.000	
15	  N3	7.892	-0.638	16.990	N.2	1	UNK0	0.000	
16	  C9	7.562	0.313	17.905	C.2	1	UNK0	0.000	
17	 C10	6.248	0.799	18.144	C.2	1	UNK0	0.000	
18	 C11	6.210	1.788	19.104	C.2	1	UNK0	0.000	
19	  S2	7.766	2.110	19.737	S.3	1	UNK0	0.000	
20	 C12	6.226	8.280	22.367	C.3	1	UNK0	0.000	
21	 C13	7.472	8.258	23.203	C.2	1	UNK0	0.000	
22	 C14	8.592	8.979	22.945	C.2	1	UNK0	0.000	
23	 C15	9.445	8.743	24.063	C.2	1	UNK0	0.000	
24	 C16	10.636	9.156	24.476	C.2	1	UNK0	0.000	
25	 C17	11.229	8.700	25.779	C.3	1	UNK0	0.000	
26	  N4	10.409	7.787	26.594	N.2	1	UNK0	0.000	
27	 C18	9.253	7.398	26.186	C.2	1	UNK0	0.000	
28	 C19	8.678	7.837	24.902	C.2	1	UNK0	0.000	
29	  N5	7.509	7.533	24.403	N.2	1	UNK0	0.000	
@<TRIPOS>BOND
1 1 2 1
2 1 6 1
3 1 7 1
4 2 3 2
5 2 4 1
6 4 5 1
7 4 20 1
8 5 6 1
9 7 8 1
10 8 9 2
11 8 10 2
12 8 18 1
13 11 12 1
14 11 16 2
15 11 19 1
16 12 13 2
17 13 14 1
18 14 15 2
19 15 16 1
20 16 17 1
21 17 18 2
22 18 19 1
23 20 21 1
24 21 22 2
25 21 29 1
26 22 23 1
27 23 24 2
28 23 28 1
29 24 25 1
30 25 26 1
31 26 27 2
32 27 28 1
33 28 29 2
@<TRIPOS>SUBSTRUCTURE
1	UNK0	1	GROUP	1 ****	UNK
