# created with PyMOL 2.5.0
@<TRIPOS>MOLECULE
data/FXA/cocry_dataset/1fax_DX9_LIG.pdb
33 36 1                 
SMALL
USER_CHARGES
@<TRIPOS>ATOM
1	  C1	4.338	2.233	16.567	C.3	1	UNK0	0.000	
2	  C2	5.039	3.126	15.543	C.2	1	UNK0	0.000	
3	  C3	5.097	4.506	15.791	C.2	1	UNK0	0.000	
4	  C4	5.924	5.343	15.034	C.2	1	UNK0	0.000	
5	  C5	6.687	4.829	13.989	C.2	1	UNK0	0.000	
6	  C6	6.567	3.472	13.680	C.2	1	UNK0	0.000	
7	  C7	5.736	2.629	14.434	C.2	1	UNK0	0.000	
8	  O1	7.584	5.528	13.225	O.3	1	UNK0	0.000	
9	  C8	7.785	6.905	13.530	C.3	1	UNK0	0.000	
10	  C9	7.072	7.809	12.524	C.3	1	UNK0	0.000	
11	  N1	7.738	9.128	12.652	N.3	1	UNK0	0.000	
12	 C10	9.161	8.755	12.800	C.3	1	UNK0	0.000	
13	 C11	9.235	7.337	13.361	C.3	1	UNK0	0.000	
14	 C12	7.195	9.928	13.751	C.3	1	UNK0	0.000	
15	  N2	8.276	10.729	14.289	N.3	1	UNK0	0.000	
16	 C13	6.146	10.949	13.286	C.3	1	UNK0	0.000	
17	 C14	2.818	2.215	16.573	C.2	1	UNK0	0.000	
18	  O2	2.184	1.652	17.462	O.co2	1	UNK0	0.000	
19	  O3	2.188	2.865	15.579	O.co2	1	UNK0	0.000	
20	 C15	4.858	0.770	16.601	C.3	1	UNK0	0.000	
21	 C16	7.152	-0.290	16.596	C.2	1	UNK0	0.000	
22	 C17	6.266	0.642	17.151	C.2	1	UNK0	0.000	
23	 C18	6.703	1.432	18.219	C.2	1	UNK0	0.000	
24	 C19	7.989	1.265	18.742	C.2	1	UNK0	0.000	
25	 C20	8.860	0.295	18.217	C.2	1	UNK0	0.000	
26	 C21	10.145	0.078	18.736	C.2	1	UNK0	0.000	
27	 C22	10.979	-0.915	18.204	C.2	1	UNK0	0.000	
28	 C23	10.552	-1.723	17.139	C.2	1	UNK0	0.000	
29	 C24	9.272	-1.486	16.611	C.2	1	UNK0	0.000	
30	 C25	8.430	-0.493	17.133	C.2	1	UNK0	0.000	
31	 C26	11.395	-2.806	16.594	C.2	1	UNK0	0.000	
32	  N3	12.706	-2.679	16.574	N.pl3	1	UNK0	0.000	
33	  N4	10.840	-3.915	16.152	N.pl3	1	UNK0	0.000	
@<TRIPOS>BOND
1 1 2 1
2 1 17 1
3 1 20 1
4 2 3 1
5 2 7 2
6 3 4 2
7 4 5 1
8 5 6 2
9 5 8 1
10 6 7 1
11 8 9 1
12 9 10 1
13 9 13 1
14 10 11 1
15 11 12 1
16 11 14 1
17 12 13 1
18 14 15 1
19 14 16 1
20 17 18 2
21 17 19 1
22 20 22 1
23 21 22 1
24 21 30 2
25 22 23 2
26 23 24 1
27 24 25 2
28 25 26 1
29 25 30 1
30 26 27 2
31 27 28 1
32 28 29 2
33 28 31 1
34 29 30 1
35 31 32 2
36 31 33 1
@<TRIPOS>SUBSTRUCTURE
1	UNK0	1	GROUP	1 ****	UNK
