# created with PyMOL 2.5.0
@<TRIPOS>MOLECULE
data/FXA/cocry_dataset/1fax_DX9_LIG.pdb
33 36 1                 
SMALL
USER_CHARGES
@<TRIPOS>ATOM
1	  C1	6.314	1.728	19.570	C.3	1	UNK0	0.000	
2	  C2	6.462	3.227	19.835	C.2	1	UNK0	0.000	
3	  C3	5.464	4.091	19.360	C.2	1	UNK0	0.000	
4	  C4	5.407	5.427	19.771	C.2	1	UNK0	0.000	
5	  C5	6.365	5.942	20.640	C.2	1	UNK0	0.000	
6	  C6	7.412	5.112	21.047	C.2	1	UNK0	0.000	
7	  C7	7.476	3.773	20.635	C.2	1	UNK0	0.000	
8	  O1	6.377	7.206	21.169	O.3	1	UNK0	0.000	
9	  C8	7.612	7.699	21.683	C.3	1	UNK0	0.000	
10	  C9	7.387	8.844	22.670	C.3	1	UNK0	0.000	
11	  N1	8.687	9.554	22.738	N.3	1	UNK0	0.000	
12	 C10	9.131	9.547	21.329	C.3	1	UNK0	0.000	
13	 C11	8.465	8.371	20.617	C.3	1	UNK0	0.000	
14	 C12	9.619	8.931	23.679	C.3	1	UNK0	0.000	
15	  N2	10.467	9.976	24.216	N.3	1	UNK0	0.000	
16	 C13	8.917	8.328	24.906	C.3	1	UNK0	0.000	
17	 C14	5.035	1.048	20.031	C.2	1	UNK0	0.000	
18	  O2	4.763	0.926	21.222	O.co2	1	UNK0	0.000	
19	  O3	4.193	0.605	19.080	O.co2	1	UNK0	0.000	
20	 C15	6.610	1.306	18.106	C.3	1	UNK0	0.000	
21	 C16	8.005	-0.500	17.020	C.2	1	UNK0	0.000	
22	 C17	7.912	0.546	17.948	C.2	1	UNK0	0.000	
23	 C18	9.034	0.857	18.722	C.2	1	UNK0	0.000	
24	 C19	10.211	0.112	18.595	C.2	1	UNK0	0.000	
25	 C20	10.286	-0.968	17.699	C.2	1	UNK0	0.000	
26	 C21	11.439	-1.756	17.567	C.2	1	UNK0	0.000	
27	 C22	11.472	-2.842	16.681	C.2	1	UNK0	0.000	
28	 C23	10.352	-3.174	15.904	C.2	1	UNK0	0.000	
29	 C24	9.209	-2.367	16.026	C.2	1	UNK0	0.000	
30	 C25	9.165	-1.277	16.907	C.2	1	UNK0	0.000	
31	 C26	10.349	-4.341	14.999	C.2	1	UNK0	0.000	
32	  N3	11.483	-4.909	14.645	N.pl3	1	UNK0	0.000	
33	  N4	9.208	-4.835	14.564	N.pl3	1	UNK0	0.000	
@<TRIPOS>BOND
1 1 2 1
2 1 17 1
3 1 20 1
4 2 3 1
5 2 7 2
6 3 4 2
7 4 5 1
8 5 6 2
9 5 8 1
10 6 7 1
11 8 9 1
12 9 10 1
13 9 13 1
14 10 11 1
15 11 12 1
16 11 14 1
17 12 13 1
18 14 15 1
19 14 16 1
20 17 18 2
21 17 19 1
22 20 22 1
23 21 22 1
24 21 30 2
25 22 23 2
26 23 24 1
27 24 25 2
28 25 26 1
29 25 30 1
30 26 27 2
31 27 28 1
32 28 29 2
33 28 31 1
34 29 30 1
35 31 32 2
36 31 33 1
@<TRIPOS>SUBSTRUCTURE
1	UNK0	1	GROUP	1 ****	UNK
