# created with PyMOL 2.5.0
@<TRIPOS>MOLECULE
data/FXA/cocry_dataset/1fax_DX9_LIG.pdb
33 36 1                 
SMALL
USER_CHARGES
@<TRIPOS>ATOM
1	  C1	5.827	1.297	19.116	C.3	1	UNK0	0.000	
2	  C2	6.078	2.646	19.790	C.2	1	UNK0	0.000	
3	  C3	7.180	2.768	20.649	C.2	1	UNK0	0.000	
4	  C4	7.610	4.021	21.103	C.2	1	UNK0	0.000	
5	  C5	6.929	5.178	20.737	C.2	1	UNK0	0.000	
6	  C6	5.778	5.056	19.954	C.2	1	UNK0	0.000	
7	  C7	5.341	3.803	19.500	C.2	1	UNK0	0.000	
8	  O1	7.289	6.461	21.055	O.3	1	UNK0	0.000	
9	  C8	6.781	7.013	22.267	C.3	1	UNK0	0.000	
10	  C9	5.839	8.186	21.992	C.3	1	UNK0	0.000	
11	  N1	5.784	8.941	23.268	N.3	1	UNK0	0.000	
12	 C10	7.188	8.897	23.727	C.3	1	UNK0	0.000	
13	 C11	7.862	7.674	23.109	C.3	1	UNK0	0.000	
14	 C12	4.811	8.384	24.209	C.3	1	UNK0	0.000	
15	  N2	4.666	9.327	25.301	N.3	1	UNK0	0.000	
16	 C13	3.402	8.261	23.610	C.3	1	UNK0	0.000	
17	 C14	4.403	0.769	19.089	C.2	1	UNK0	0.000	
18	  O2	3.806	0.576	18.033	O.co2	1	UNK0	0.000	
19	  O3	3.822	0.494	20.271	O.co2	1	UNK0	0.000	
20	 C15	6.438	1.170	17.694	C.3	1	UNK0	0.000	
21	 C16	7.985	-0.616	16.798	C.2	1	UNK0	0.000	
22	 C17	7.777	0.458	17.673	C.2	1	UNK0	0.000	
23	 C18	8.818	0.842	18.524	C.2	1	UNK0	0.000	
24	 C19	10.028	0.141	18.523	C.2	1	UNK0	0.000	
25	 C20	10.218	-0.967	17.680	C.2	1	UNK0	0.000	
26	 C21	11.407	-1.712	17.674	C.2	1	UNK0	0.000	
27	 C22	11.554	-2.827	16.837	C.2	1	UNK0	0.000	
28	 C23	10.516	-3.232	15.984	C.2	1	UNK0	0.000	
29	 C24	9.337	-2.468	15.981	C.2	1	UNK0	0.000	
30	 C25	9.179	-1.349	16.811	C.2	1	UNK0	0.000	
31	 C26	10.632	-4.430	15.128	C.2	1	UNK0	0.000	
32	  N3	9.565	-5.149	14.846	N.pl3	1	UNK0	0.000	
33	  N4	11.800	-4.768	14.622	N.pl3	1	UNK0	0.000	
@<TRIPOS>BOND
1 1 2 1
2 1 17 1
3 1 20 1
4 2 3 1
5 2 7 2
6 3 4 2
7 4 5 1
8 5 6 2
9 5 8 1
10 6 7 1
11 8 9 1
12 9 10 1
13 9 13 1
14 10 11 1
15 11 12 1
16 11 14 1
17 12 13 1
18 14 15 1
19 14 16 1
20 17 18 2
21 17 19 1
22 20 22 1
23 21 22 1
24 21 30 2
25 22 23 2
26 23 24 1
27 24 25 2
28 25 26 1
29 25 30 1
30 26 27 2
31 27 28 1
32 28 29 2
33 28 31 1
34 29 30 1
35 31 32 2
36 31 33 1
@<TRIPOS>SUBSTRUCTURE
1	UNK0	1	GROUP	1 ****	UNK
