# created with PyMOL 2.5.0
@<TRIPOS>MOLECULE
data/FXA/cocry_dataset/1fjs_Z34_LIG.pdb
38 41 1                 
SMALL
USER_CHARGES
@<TRIPOS>ATOM
1	  C1	5.167	4.907	21.382	C.3	1	UNK0	0.000	
2	  F1	5.395	5.250	22.699	 F	1	UNK0	0.000	
3	  C2	4.648	3.582	21.327	C.2	1	UNK0	0.000	
4	  C3	5.536	2.550	20.965	C.2	1	UNK0	0.000	
5	  F2	5.097	1.283	20.907	 F	1	UNK0	0.000	
6	  C4	6.864	2.829	20.664	C.2	1	UNK0	0.000	
7	  N1	7.301	4.084	20.468	N.pl3	1	UNK0	0.000	
8	  C5	6.405	5.071	20.708	C.2	1	UNK0	0.000	
9	  N2	3.316	3.305	21.654	N.pl3	1	UNK0	0.000	
10	  C6	2.207	3.724	20.799	C.3	1	UNK0	0.000	
11	  C7	2.967	2.432	22.791	C.3	1	UNK0	0.000	
12	  C8	2.434	3.191	24.012	C.2	1	UNK0	0.000	
13	  O1	1.578	2.752	24.771	O.co2	1	UNK0	0.000	
14	  O2	3.011	4.399	24.221	O.co2	1	UNK0	0.000	
15	  O3	6.690	6.367	20.270	O.3	1	UNK0	0.000	
16	  C9	7.529	7.155	21.033	C.2	1	UNK0	0.000	
17	 C10	7.690	6.999	22.413	C.2	1	UNK0	0.000	
18	 C11	8.526	7.858	23.136	C.2	1	UNK0	0.000	
19	 C12	9.268	8.838	22.468	C.2	1	UNK0	0.000	
20	 C13	9.169	8.952	21.079	C.2	1	UNK0	0.000	
21	 C14	8.306	8.112	20.369	C.2	1	UNK0	0.000	
22	  O4	8.214	8.219	19.009	O.3	1	UNK0	0.000	
23	 C15	8.568	7.729	24.620	C.2	1	UNK0	0.000	
24	  N3	9.396	8.388	25.364	N.2	1	UNK0	0.000	
25	  N4	7.698	6.890	25.253	N.pl3	1	UNK0	0.000	
26	  O5	7.794	1.851	20.388	O.3	1	UNK0	0.000	
27	 C16	7.785	1.249	19.148	C.2	1	UNK0	0.000	
28	 C17	6.794	1.443	18.182	C.2	1	UNK0	0.000	
29	 C18	6.886	0.790	16.955	C.2	1	UNK0	0.000	
30	 C19	7.940	-0.091	16.710	C.2	1	UNK0	0.000	
31	 C20	8.950	-0.298	17.664	C.2	1	UNK0	0.000	
32	 C21	8.839	0.366	18.894	C.2	1	UNK0	0.000	
33	 C22	10.086	-1.199	17.435	C.2	1	UNK0	0.000	
34	  N5	10.143	-2.276	16.570	N.pl3	1	UNK0	0.000	
35	 C23	9.153	-2.747	15.631	C.3	1	UNK0	0.000	
36	 C24	11.384	-2.850	16.685	C.2	1	UNK0	0.000	
37	 C25	12.062	-2.067	17.581	C.2	1	UNK0	0.000	
38	  N6	11.264	-1.048	18.022	N.2	1	UNK0	0.000	
@<TRIPOS>BOND
1 1 2 1
2 1 3 1
3 1 8 1
4 3 4 2
5 3 9 1
6 4 5 1
7 4 6 1
8 6 7 2
9 6 26 1
10 7 8 2
11 8 15 1
12 9 10 1
13 9 11 1
14 11 12 1
15 12 13 2
16 12 14 1
17 15 16 1
18 16 17 1
19 16 21 2
20 17 18 2
21 18 19 1
22 18 23 1
23 19 20 2
24 20 21 1
25 21 22 1
26 23 24 2
27 23 25 1
28 26 27 1
29 27 28 1
30 27 32 2
31 28 29 2
32 29 30 1
33 30 31 2
34 31 32 1
35 31 33 1
36 33 34 1
37 33 38 2
38 34 35 1
39 34 36 1
40 36 37 2
41 37 38 1
@<TRIPOS>SUBSTRUCTURE
1	UNK0	1	GROUP	1 ****	UNK
