# created with PyMOL 2.5.0
@<TRIPOS>MOLECULE
data/FXA/cocry_dataset/1fjs_Z34_LIG.pdb
38 41 1                 
SMALL
USER_CHARGES
@<TRIPOS>ATOM
1	  C1	5.077	8.043	22.432	C.3	1	UNK0	0.000	
2	  F1	4.189	7.408	23.277	 F	1	UNK0	0.000	
3	  C2	4.897	7.550	21.108	C.2	1	UNK0	0.000	
4	  C3	5.829	6.607	20.633	C.2	1	UNK0	0.000	
5	  F2	5.697	6.106	19.394	 F	1	UNK0	0.000	
6	  C4	6.886	6.188	21.432	C.2	1	UNK0	0.000	
7	  N1	7.211	6.821	22.571	N.pl3	1	UNK0	0.000	
8	  C5	6.371	7.808	22.964	C.2	1	UNK0	0.000	
9	  N2	3.817	7.958	20.318	N.pl3	1	UNK0	0.000	
10	  C6	4.008	8.694	19.069	C.3	1	UNK0	0.000	
11	  C7	2.438	7.525	20.614	C.3	1	UNK0	0.000	
12	  C8	1.470	8.684	20.882	C.2	1	UNK0	0.000	
13	  O1	0.391	8.819	20.317	O.co2	1	UNK0	0.000	
14	  O2	1.883	9.554	21.834	O.co2	1	UNK0	0.000	
15	  O3	6.780	8.684	23.974	O.3	1	UNK0	0.000	
16	  C9	8.076	8.596	24.443	C.2	1	UNK0	0.000	
17	 C10	8.455	7.776	25.511	C.2	1	UNK0	0.000	
18	 C11	9.779	7.763	25.966	C.2	1	UNK0	0.000	
19	 C12	10.753	8.519	25.305	C.2	1	UNK0	0.000	
20	 C13	10.396	9.285	24.191	C.2	1	UNK0	0.000	
21	 C14	9.065	9.317	23.765	C.2	1	UNK0	0.000	
22	  O4	8.717	10.061	22.671	O.3	1	UNK0	0.000	
23	 C15	10.106	6.967	27.182	C.2	1	UNK0	0.000	
24	  N3	11.228	6.341	27.337	N.2	1	UNK0	0.000	
25	  N4	9.202	6.881	28.200	N.pl3	1	UNK0	0.000	
26	  O5	7.774	5.207	21.050	O.3	1	UNK0	0.000	
27	 C16	7.342	3.900	20.988	C.2	1	UNK0	0.000	
28	 C17	6.339	3.360	21.796	C.2	1	UNK0	0.000	
29	 C18	5.971	2.024	21.645	C.2	1	UNK0	0.000	
30	 C19	6.637	1.217	20.721	C.2	1	UNK0	0.000	
31	 C20	7.646	1.739	19.894	C.2	1	UNK0	0.000	
32	 C21	8.003	3.085	20.063	C.2	1	UNK0	0.000	
33	 C22	8.353	0.929	18.897	C.2	1	UNK0	0.000	
34	  N5	7.834	0.382	17.737	N.pl3	1	UNK0	0.000	
35	 C23	6.513	0.520	17.174	C.3	1	UNK0	0.000	
36	 C24	8.837	-0.315	17.109	C.2	1	UNK0	0.000	
37	 C25	9.949	-0.124	17.885	C.2	1	UNK0	0.000	
38	  N6	9.647	0.653	18.969	N.2	1	UNK0	0.000	
@<TRIPOS>BOND
1 1 2 1
2 1 3 1
3 1 8 1
4 3 4 2
5 3 9 1
6 4 5 1
7 4 6 1
8 6 7 2
9 6 26 1
10 7 8 2
11 8 15 1
12 9 10 1
13 9 11 1
14 11 12 1
15 12 13 2
16 12 14 1
17 15 16 1
18 16 17 1
19 16 21 2
20 17 18 2
21 18 19 1
22 18 23 1
23 19 20 2
24 20 21 1
25 21 22 1
26 23 24 2
27 23 25 1
28 26 27 1
29 27 28 1
30 27 32 2
31 28 29 2
32 29 30 1
33 30 31 2
34 31 32 1
35 31 33 1
36 33 34 1
37 33 38 2
38 34 35 1
39 34 36 1
40 36 37 2
41 37 38 1
@<TRIPOS>SUBSTRUCTURE
1	UNK0	1	GROUP	1 ****	UNK
