# created with PyMOL 2.5.0
@<TRIPOS>MOLECULE
data/FXA/cocry_dataset/1fjs_Z34_LIG.pdb
38 41 1                 
SMALL
USER_CHARGES
@<TRIPOS>ATOM
1	  C1	4.967	7.511	23.272	C.3	1	UNK0	0.000	
2	  F1	4.728	6.855	24.462	 F	1	UNK0	0.000	
3	  C2	4.358	6.787	22.207	C.2	1	UNK0	0.000	
4	  C3	5.192	5.985	21.404	C.2	1	UNK0	0.000	
5	  F2	4.663	5.277	20.394	 F	1	UNK0	0.000	
6	  C4	6.559	5.919	21.645	C.2	1	UNK0	0.000	
7	  N1	7.179	6.778	22.471	N.pl3	1	UNK0	0.000	
8	  C5	6.377	7.627	23.157	C.2	1	UNK0	0.000	
9	  N2	2.977	6.840	21.985	N.pl3	1	UNK0	0.000	
10	  C6	2.396	7.653	20.918	C.3	1	UNK0	0.000	
11	  C7	2.046	5.952	22.707	C.3	1	UNK0	0.000	
12	  C8	2.646	4.588	23.069	C.2	1	UNK0	0.000	
13	  O1	3.130	4.322	24.162	O.co2	1	UNK0	0.000	
14	  O2	2.575	3.662	22.083	O.co2	1	UNK0	0.000	
15	  O3	6.951	8.717	23.817	O.3	1	UNK0	0.000	
16	  C9	8.219	8.579	24.347	C.2	1	UNK0	0.000	
17	 C10	8.507	7.785	25.462	C.2	1	UNK0	0.000	
18	 C11	9.807	7.718	25.975	C.2	1	UNK0	0.000	
19	 C12	10.849	8.392	25.329	C.2	1	UNK0	0.000	
20	 C13	10.583	9.128	24.171	C.2	1	UNK0	0.000	
21	 C14	9.275	9.216	23.685	C.2	1	UNK0	0.000	
22	  O4	9.015	9.930	22.548	O.3	1	UNK0	0.000	
23	 C15	10.037	6.957	27.235	C.2	1	UNK0	0.000	
24	  N3	9.161	6.878	28.184	N.2	1	UNK0	0.000	
25	  N4	11.215	6.295	27.422	N.pl3	1	UNK0	0.000	
26	  O5	7.406	5.087	20.947	O.3	1	UNK0	0.000	
27	 C16	7.147	3.734	20.925	C.2	1	UNK0	0.000	
28	 C17	6.254	3.086	21.782	C.2	1	UNK0	0.000	
29	 C18	6.060	1.711	21.669	C.2	1	UNK0	0.000	
30	 C19	6.791	0.976	20.735	C.2	1	UNK0	0.000	
31	 C20	7.691	1.607	19.859	C.2	1	UNK0	0.000	
32	 C21	7.874	2.991	19.990	C.2	1	UNK0	0.000	
33	 C22	8.461	0.873	18.848	C.2	1	UNK0	0.000	
34	  N5	7.997	0.347	17.656	N.pl3	1	UNK0	0.000	
35	 C23	6.684	0.442	17.066	C.3	1	UNK0	0.000	
36	 C24	9.047	-0.273	17.027	C.2	1	UNK0	0.000	
37	 C25	10.130	-0.059	17.837	C.2	1	UNK0	0.000	
38	  N6	9.765	0.659	18.942	N.2	1	UNK0	0.000	
@<TRIPOS>BOND
1 1 2 1
2 1 3 1
3 1 8 1
4 3 4 2
5 3 9 1
6 4 5 1
7 4 6 1
8 6 7 2
9 6 26 1
10 7 8 2
11 8 15 1
12 9 10 1
13 9 11 1
14 11 12 1
15 12 13 2
16 12 14 1
17 15 16 1
18 16 17 1
19 16 21 2
20 17 18 2
21 18 19 1
22 18 23 1
23 19 20 2
24 20 21 1
25 21 22 1
26 23 24 2
27 23 25 1
28 26 27 1
29 27 28 1
30 27 32 2
31 28 29 2
32 29 30 1
33 30 31 2
34 31 32 1
35 31 33 1
36 33 34 1
37 33 38 2
38 34 35 1
39 34 36 1
40 36 37 2
41 37 38 1
@<TRIPOS>SUBSTRUCTURE
1	UNK0	1	GROUP	1 ****	UNK
