# created with PyMOL 2.5.0
@<TRIPOS>MOLECULE
data/FXA/cocry_dataset/1fjs_Z34_LIG.pdb
61 64 1                 
SMALL
USER_CHARGES
@<TRIPOS>ATOM
1	 H12	11.931	6.377	26.612	 H	1	UNK0	0.000	
2	 H14	9.423	6.345	29.027	 H	1	UNK0	0.000	
3	 H11	8.486	9.475	21.946	 H	1	UNK0	0.000	
4	 H22	8.763	-0.896	16.190	 H	1	UNK0	0.000	
5	 H01	4.919	9.120	22.369	 H	1	UNK0	0.000	
6	 H15	5.844	3.981	22.542	 H	1	UNK0	0.000	
7	 H20	6.562	1.142	16.279	 H	1	UNK0	0.000	
8	 H17	6.370	0.163	20.640	 H	1	UNK0	0.000	
9	 H02	5.055	8.640	18.772	 H	1	UNK0	0.000	
10	 H23	10.935	-0.534	17.669	 H	1	UNK0	0.000	
11	 H06	2.066	6.956	19.762	 H	1	UNK0	0.000	
12	 H03	3.386	8.254	18.289	 H	1	UNK0	0.000	
13	 H10	11.155	9.855	23.655	 H	1	UNK0	0.000	
14	 H19	5.854	0.988	17.905	 H	1	UNK0	0.000	
15	 H05	2.481	6.930	21.526	 H	1	UNK0	0.000	
16	 H04	3.725	9.737	19.214	 H	1	UNK0	0.000	
17	 H21	6.124	-0.464	16.912	 H	1	UNK0	0.000	
18	 H16	5.163	1.610	22.248	 H	1	UNK0	0.000	
19	 H09	11.784	8.512	25.658	 H	1	UNK0	0.000	
20	 H08	7.713	7.140	25.993	 H	1	UNK0	0.000	
21	 H07	2.094	9.072	22.638	 H	1	UNK0	0.000	
22	 H18	8.811	3.504	19.463	 H	1	UNK0	0.000	
23	 H13	8.313	7.355	28.128	 H	1	UNK0	0.000	
24	  C1	5.077	8.043	22.432	C.3	1	UNK0	0.000	
25	  F1	4.189	7.408	23.277	 F	1	UNK0	0.000	
26	  C2	4.897	7.550	21.108	C.2	1	UNK0	0.000	
27	  C3	5.829	6.607	20.633	C.2	1	UNK0	0.000	
28	  F2	5.697	6.106	19.394	 F	1	UNK0	0.000	
29	  C4	6.886	6.188	21.432	C.2	1	UNK0	0.000	
30	  N1	7.211	6.821	22.571	N.2	1	UNK0	0.000	
31	  C5	6.371	7.808	22.964	C.2	1	UNK0	0.000	
32	  N2	3.817	7.958	20.318	N.pl3	1	UNK0	0.000	
33	  C6	4.008	8.694	19.069	C.3	1	UNK0	0.000	
34	  C7	2.438	7.525	20.614	C.3	1	UNK0	0.000	
35	  C8	1.470	8.684	20.882	C.2	1	UNK0	0.000	
36	  O1	0.391	8.819	20.317	O.co2	1	UNK0	0.000	
37	  O2	1.883	9.554	21.834	O.3	1	UNK0	0.000	
38	  O3	6.780	8.684	23.974	O.3	1	UNK0	0.000	
39	  C9	8.076	8.596	24.443	C.2	1	UNK0	0.000	
40	 C10	8.455	7.776	25.511	C.2	1	UNK0	0.000	
41	 C11	9.779	7.763	25.966	C.2	1	UNK0	0.000	
42	 C12	10.753	8.519	25.305	C.2	1	UNK0	0.000	
43	 C13	10.396	9.285	24.191	C.2	1	UNK0	0.000	
44	 C14	9.065	9.317	23.765	C.2	1	UNK0	0.000	
45	  O4	8.717	10.061	22.671	O.3	1	UNK0	0.000	
46	 C15	10.106	6.967	27.182	C.2	1	UNK0	0.000	
47	  N3	11.228	6.341	27.337	N.2	1	UNK0	0.000	
48	  N4	9.202	6.881	28.200	N.pl3	1	UNK0	0.000	
49	  O5	7.774	5.207	21.050	O.3	1	UNK0	0.000	
50	 C16	7.342	3.900	20.988	C.2	1	UNK0	0.000	
51	 C17	6.339	3.360	21.796	C.2	1	UNK0	0.000	
52	 C18	5.971	2.024	21.645	C.2	1	UNK0	0.000	
53	 C19	6.637	1.217	20.721	C.2	1	UNK0	0.000	
54	 C20	7.646	1.739	19.894	C.2	1	UNK0	0.000	
55	 C21	8.003	3.085	20.063	C.2	1	UNK0	0.000	
56	 C22	8.353	0.929	18.897	C.2	1	UNK0	0.000	
57	  N5	7.834	0.382	17.737	N.pl3	1	UNK0	0.000	
58	 C23	6.513	0.520	17.174	C.3	1	UNK0	0.000	
59	 C24	8.837	-0.315	17.109	C.2	1	UNK0	0.000	
60	 C25	9.949	-0.124	17.885	C.2	1	UNK0	0.000	
61	  N6	9.647	0.653	18.969	N.2	1	UNK0	0.000	
@<TRIPOS>BOND
1 5 24 1
2 24 25 1
3 24 26 1
4 24 31 1
5 26 27 2
6 26 32 1
7 27 28 1
8 27 29 1
9 29 30 2
10 29 49 1
11 30 31 2
12 31 38 1
13 32 33 1
14 32 34 1
15 9 33 1
16 12 33 1
17 16 33 1
18 11 34 1
19 15 34 1
20 34 35 1
21 35 36 2
22 35 37 1
23 21 37 1
24 38 39 1
25 39 40 1
26 39 44 2
27 20 40 1
28 40 41 2
29 41 42 1
30 41 46 1
31 19 42 1
32 42 43 2
33 13 43 1
34 43 44 1
35 44 45 1
36 3 45 1
37 46 47 2
38 46 48 1
39 1 47 1
40 2 48 1
41 23 48 1
42 49 50 1
43 50 51 1
44 50 55 2
45 6 51 1
46 51 52 2
47 18 52 1
48 52 53 1
49 8 53 1
50 53 54 2
51 54 55 1
52 54 56 1
53 22 55 1
54 56 57 1
55 56 61 2
56 57 58 1
57 57 59 1
58 7 58 1
59 14 58 1
60 17 58 1
61 4 59 1
62 59 60 2
63 10 60 1
64 60 61 1
@<TRIPOS>SUBSTRUCTURE
1	UNK0	1	GROUP	1 ****	UNK
