# created with PyMOL 2.5.0
@<TRIPOS>MOLECULE
data/FXA/cocry_dataset/1fjs_Z34_LIG.pdb
61 64 1                 
SMALL
USER_CHARGES
@<TRIPOS>ATOM
1	 H12	10.058	9.024	24.943	 H	1	UNK0	0.000	
2	 H14	7.722	6.803	26.259	 H	1	UNK0	0.000	
3	 H11	7.652	7.518	18.669	 H	1	UNK0	0.000	
4	 H22	11.753	-3.739	16.173	 H	1	UNK0	0.000	
5	 H01	4.421	5.535	20.894	 H	1	UNK0	0.000	
6	 H15	5.952	2.103	18.389	 H	1	UNK0	0.000	
7	 H20	9.581	-2.761	14.628	 H	1	UNK0	0.000	
8	 H17	7.980	-0.628	15.762	 H	1	UNK0	0.000	
9	 H02	1.386	4.082	21.419	 H	1	UNK0	0.000	
10	 H23	13.091	-2.233	17.899	 H	1	UNK0	0.000	
11	 H06	2.202	1.728	22.463	 H	1	UNK0	0.000	
12	 H03	2.539	4.526	20.139	 H	1	UNK0	0.000	
13	 H10	9.765	9.695	20.548	 H	1	UNK0	0.000	
14	 H19	8.291	-2.080	15.648	 H	1	UNK0	0.000	
15	 H05	3.885	1.934	23.103	 H	1	UNK0	0.000	
16	 H04	1.869	2.878	20.201	 H	1	UNK0	0.000	
17	 H21	8.839	-3.753	15.907	 H	1	UNK0	0.000	
18	 H16	6.135	0.968	16.186	 H	1	UNK0	0.000	
19	 H09	9.919	9.509	23.028	 H	1	UNK0	0.000	
20	 H08	7.159	6.201	22.931	 H	1	UNK0	0.000	
21	 H07	3.166	4.522	25.160	 H	1	UNK0	0.000	
22	 H18	9.588	0.191	19.667	 H	1	UNK0	0.000	
23	 H13	7.030	6.356	24.715	 H	1	UNK0	0.000	
24	  C1	5.167	4.907	21.382	C.3	1	UNK0	0.000	
25	  F1	5.395	5.250	22.699	 F	1	UNK0	0.000	
26	  C2	4.648	3.582	21.327	C.2	1	UNK0	0.000	
27	  C3	5.536	2.550	20.965	C.2	1	UNK0	0.000	
28	  F2	5.097	1.283	20.907	 F	1	UNK0	0.000	
29	  C4	6.864	2.829	20.664	C.2	1	UNK0	0.000	
30	  N1	7.301	4.084	20.468	N.2	1	UNK0	0.000	
31	  C5	6.405	5.071	20.708	C.2	1	UNK0	0.000	
32	  N2	3.316	3.305	21.654	N.pl3	1	UNK0	0.000	
33	  C6	2.207	3.724	20.799	C.3	1	UNK0	0.000	
34	  C7	2.967	2.432	22.791	C.3	1	UNK0	0.000	
35	  C8	2.434	3.191	24.012	C.2	1	UNK0	0.000	
36	  O1	1.578	2.752	24.771	O.co2	1	UNK0	0.000	
37	  O2	3.011	4.399	24.221	O.3	1	UNK0	0.000	
38	  O3	6.690	6.367	20.270	O.3	1	UNK0	0.000	
39	  C9	7.529	7.155	21.033	C.2	1	UNK0	0.000	
40	 C10	7.690	6.999	22.413	C.2	1	UNK0	0.000	
41	 C11	8.526	7.858	23.136	C.2	1	UNK0	0.000	
42	 C12	9.268	8.838	22.468	C.2	1	UNK0	0.000	
43	 C13	9.169	8.952	21.079	C.2	1	UNK0	0.000	
44	 C14	8.306	8.112	20.369	C.2	1	UNK0	0.000	
45	  O4	8.214	8.219	19.009	O.3	1	UNK0	0.000	
46	 C15	8.568	7.729	24.620	C.2	1	UNK0	0.000	
47	  N3	9.396	8.388	25.364	N.2	1	UNK0	0.000	
48	  N4	7.698	6.890	25.253	N.pl3	1	UNK0	0.000	
49	  O5	7.794	1.851	20.388	O.3	1	UNK0	0.000	
50	 C16	7.785	1.249	19.148	C.2	1	UNK0	0.000	
51	 C17	6.794	1.443	18.182	C.2	1	UNK0	0.000	
52	 C18	6.886	0.790	16.955	C.2	1	UNK0	0.000	
53	 C19	7.940	-0.091	16.710	C.2	1	UNK0	0.000	
54	 C20	8.950	-0.298	17.664	C.2	1	UNK0	0.000	
55	 C21	8.839	0.366	18.894	C.2	1	UNK0	0.000	
56	 C22	10.086	-1.199	17.435	C.2	1	UNK0	0.000	
57	  N5	10.143	-2.276	16.570	N.pl3	1	UNK0	0.000	
58	 C23	9.153	-2.747	15.631	C.3	1	UNK0	0.000	
59	 C24	11.384	-2.850	16.685	C.2	1	UNK0	0.000	
60	 C25	12.062	-2.067	17.581	C.2	1	UNK0	0.000	
61	  N6	11.264	-1.048	18.022	N.2	1	UNK0	0.000	
@<TRIPOS>BOND
1 5 24 1
2 24 25 1
3 24 26 1
4 24 31 1
5 26 27 2
6 26 32 1
7 27 28 1
8 27 29 1
9 29 30 2
10 29 49 1
11 30 31 2
12 31 38 1
13 32 33 1
14 32 34 1
15 9 33 1
16 12 33 1
17 16 33 1
18 11 34 1
19 15 34 1
20 34 35 1
21 35 36 2
22 35 37 1
23 21 37 1
24 38 39 1
25 39 40 1
26 39 44 2
27 20 40 1
28 40 41 2
29 41 42 1
30 41 46 1
31 19 42 1
32 42 43 2
33 13 43 1
34 43 44 1
35 44 45 1
36 3 45 1
37 46 47 2
38 46 48 1
39 1 47 1
40 2 48 1
41 23 48 1
42 49 50 1
43 50 51 1
44 50 55 2
45 6 51 1
46 51 52 2
47 18 52 1
48 52 53 1
49 8 53 1
50 53 54 2
51 54 55 1
52 54 56 1
53 22 55 1
54 56 57 1
55 56 61 2
56 57 58 1
57 57 59 1
58 7 58 1
59 14 58 1
60 17 58 1
61 4 59 1
62 59 60 2
63 10 60 1
64 60 61 1
@<TRIPOS>SUBSTRUCTURE
1	UNK0	1	GROUP	1 ****	UNK
