# created with PyMOL 2.5.0
@<TRIPOS>MOLECULE
data/FXA/cocry_dataset/1g2l_T87_LIG.pdb
70 74 1                 
SMALL
USER_CHARGES
@<TRIPOS>ATOM
1	 H28	4.100	2.249	11.843	 H	1	UNK0	0.000	
2	 H30	4.669	-1.134	12.499	 H	1	UNK0	0.000	
3	 H27	4.188	4.729	11.946	 H	1	UNK0	0.000	
4	 H01	1.620	5.978	15.955	 H	1	UNK0	0.000	
5	 H13	9.509	1.222	19.902	 H	1	UNK0	0.000	
6	 H31	6.960	0.337	14.773	 H	1	UNK0	0.000	
7	 H03	2.060	6.970	14.545	 H	1	UNK0	0.000	
8	 H26	7.518	4.495	14.654	 H	1	UNK0	0.000	
9	 H09	5.359	2.193	20.289	 H	1	UNK0	0.000	
10	 H04	2.089	3.484	15.016	 H	1	UNK0	0.000	
11	 H07	3.175	-0.046	19.329	 H	1	UNK0	0.000	
12	 H06	6.177	3.545	17.923	 H	1	UNK0	0.000	
13	 H17	5.673	-2.847	13.513	 H	1	UNK0	0.000	
14	 H05	2.750	1.460	16.342	 H	1	UNK0	0.000	
15	 H12	10.980	0.045	18.260	 H	1	UNK0	0.000	
16	 H11	9.955	-0.992	16.279	 H	1	UNK0	0.000	
17	 H02	2.476	7.521	16.186	 H	1	UNK0	0.000	
18	 H10	5.755	0.704	20.161	 H	1	UNK0	0.000	
19	 H16	3.663	-2.721	17.027	 H	1	UNK0	0.000	
20	 H15	2.198	-1.972	16.256	 H	1	UNK0	0.000	
21	 H14	7.041	1.307	19.507	 H	1	UNK0	0.000	
22	 H25	7.414	2.022	14.578	 H	1	UNK0	0.000	
23	 H20	6.785	-2.911	15.912	 H	1	UNK0	0.000	
24	 H19	7.760	-3.021	14.428	 H	1	UNK0	0.000	
25	 H18	5.778	-4.637	13.682	 H	1	UNK0	0.000	
26	 H21	7.364	-4.495	15.342	 H	1	UNK0	0.000	
27	 H24	5.747	6.794	12.629	 H	1	UNK0	0.000	
28	 H23	6.263	7.727	14.718	 H	1	UNK0	0.000	
29	 H22	6.825	6.024	15.189	 H	1	UNK0	0.000	
30	 H08	2.871	1.460	19.213	 H	1	UNK0	0.000	
31	 H29	4.197	0.401	11.807	 H	1	UNK0	0.000	
32	  C1	4.894	6.506	15.776	C.2	1	UNK0	0.000	
33	  N1	5.218	5.980	16.944	N.2	1	UNK0	0.000	
34	  C2	4.782	4.702	16.773	C.2	1	UNK0	0.000	
35	  C3	3.724	4.642	15.877	C.2	1	UNK0	0.000	
36	  N2	3.644	5.956	15.450	N.pl3	1	UNK0	0.000	
37	  C4	2.371	6.650	15.539	C.3	1	UNK0	0.000	
38	  C5	2.947	3.498	15.687	C.2	1	UNK0	0.000	
39	  C6	3.344	2.371	16.416	C.2	1	UNK0	0.000	
40	  C7	4.485	2.373	17.240	C.2	1	UNK0	0.000	
41	  C8	5.241	3.546	17.365	C.2	1	UNK0	0.000	
42	  C9	4.882	1.224	18.135	C.3	1	UNK0	0.000	
43	 C10	3.770	0.848	19.139	C.3	1	UNK0	0.000	
44	 C11	5.070	1.369	19.635	C.3	1	UNK0	0.000	
45	 C12	5.712	0.167	17.419	C.2	1	UNK0	0.000	
46	  N3	5.190	-0.758	16.646	N.2	1	UNK0	0.000	
47	 C13	7.190	0.147	17.690	C.2	1	UNK0	0.000	
48	  N4	7.983	-0.484	16.780	N.2	1	UNK0	0.000	
49	 C14	9.312	-0.495	17.005	C.2	1	UNK0	0.000	
50	 C15	9.902	0.092	18.109	C.2	1	UNK0	0.000	
51	 C16	9.077	0.744	19.022	C.2	1	UNK0	0.000	
52	 C17	7.699	0.787	18.811	C.2	1	UNK0	0.000	
53	  O1	3.775	-0.723	16.555	O.3	1	UNK0	0.000	
54	 C18	3.286	-2.040	16.264	C.3	1	UNK0	0.000	
55	 C19	3.701	-2.582	14.886	C.2	1	UNK0	0.000	
56	  O2	3.318	-2.152	13.805	O.co2	1	UNK0	0.000	
57	  O3	4.539	-3.663	15.025	O.3	1	UNK0	0.000	
58	 C20	5.731	-3.684	14.209	C.3	1	UNK0	0.000	
59	 C21	6.999	-3.516	15.031	C.3	1	UNK0	0.000	
60	 C22	6.039	6.662	14.784	C.3	1	UNK0	0.000	
61	  N5	5.863	6.176	13.420	N.pl3	1	UNK0	0.000	
62	 C23	5.719	1.988	13.248	C.2	1	UNK0	0.000	
63	 C24	6.698	2.615	14.009	C.2	1	UNK0	0.000	
64	 C25	6.761	4.005	14.041	C.2	1	UNK0	0.000	
65	 C26	5.869	4.783	13.299	C.2	1	UNK0	0.000	
66	 C27	4.899	4.137	12.522	C.2	1	UNK0	0.000	
67	 C28	4.836	2.744	12.477	C.2	1	UNK0	0.000	
68	  N6	4.748	-0.128	12.467	N.pl3	1	UNK0	0.000	
69	 C29	5.600	0.518	13.318	C.2	1	UNK0	0.000	
70	  N7	6.324	-0.149	14.158	N.2	1	UNK0	0.000	
@<TRIPOS>BOND
1 32 33 2
2 32 36 1
3 33 34 1
4 34 35 1
5 34 41 2
6 35 36 1
7 35 38 2
8 36 37 1
9 4 37 1
10 7 37 1
11 17 37 1
12 10 38 1
13 38 39 1
14 14 39 1
15 39 40 2
16 40 41 1
17 40 42 1
18 12 41 1
19 42 43 1
20 42 44 1
21 42 45 1
22 11 43 1
23 30 43 1
24 43 44 1
25 9 44 1
26 18 44 1
27 45 46 2
28 45 47 1
29 46 53 1
30 47 48 1
31 47 52 2
32 48 49 2
33 16 49 1
34 49 50 1
35 15 50 1
36 50 51 2
37 5 51 1
38 51 52 1
39 21 52 1
40 53 54 1
41 19 54 1
42 20 54 1
43 54 55 1
44 55 56 2
45 55 57 1
46 57 58 1
47 13 58 1
48 25 58 1
49 58 59 1
50 23 59 1
51 24 59 1
52 26 59 1
53 28 60 1
54 29 60 1
55 32 60 1
56 27 61 1
57 60 61 1
58 62 63 1
59 62 67 2
60 22 63 1
61 63 64 2
62 8 64 1
63 64 65 1
64 61 65 1
65 65 66 2
66 3 66 1
67 66 67 1
68 1 67 1
69 2 68 1
70 31 68 1
71 68 69 1
72 62 69 1
73 69 70 2
74 6 70 1
@<TRIPOS>SUBSTRUCTURE
1	UNK0	1	GROUP	1 ****	UNK
