# created with PyMOL 2.5.0
@<TRIPOS>MOLECULE
data/FXA/cocry_dataset/1g2l_T87_LIG.pdb
70 74 1                 
SMALL
USER_CHARGES
@<TRIPOS>ATOM
1	  C1	1.868	-0.073	20.551	C.2	1	UNK0	0.000	
2	  N1	2.166	-0.658	19.404	N.2	1	UNK0	0.000	
3	  C2	2.989	0.275	18.853	C.2	1	UNK0	0.000	
4	  C3	2.687	1.551	19.306	C.2	1	UNK0	0.000	
5	  N2	1.706	1.289	20.246	N.pl3	1	UNK0	0.000	
6	  C4	0.433	1.982	20.149	C.3	1	UNK0	0.000	
7	  C5	3.221	2.710	18.742	C.2	1	UNK0	0.000	
8	  C6	4.151	2.508	17.715	C.2	1	UNK0	0.000	
9	  C7	4.562	1.222	17.317	C.2	1	UNK0	0.000	
10	  C8	4.009	0.098	17.945	C.2	1	UNK0	0.000	
11	  C9	5.466	0.952	16.138	C.3	1	UNK0	0.000	
12	 C10	5.977	2.251	15.477	C.3	1	UNK0	0.000	
13	 C11	5.101	1.325	14.712	C.3	1	UNK0	0.000	
14	 C12	6.369	-0.258	16.342	C.2	1	UNK0	0.000	
15	  N3	6.080	-1.458	15.894	N.2	1	UNK0	0.000	
16	 C13	7.607	-0.064	17.172	C.2	1	UNK0	0.000	
17	  N4	8.759	-0.629	16.716	N.2	1	UNK0	0.000	
18	 C14	9.879	-0.449	17.445	C.2	1	UNK0	0.000	
19	 C15	9.911	0.269	18.625	C.2	1	UNK0	0.000	
20	 C16	8.727	0.852	19.070	C.2	1	UNK0	0.000	
21	 C17	7.554	0.697	18.331	C.2	1	UNK0	0.000	
22	  O1	4.831	-1.555	15.229	O.3	1	UNK0	0.000	
23	 C18	4.938	-2.500	14.155	C.3	1	UNK0	0.000	
24	 C19	6.209	-2.350	13.300	C.2	1	UNK0	0.000	
25	  O2	6.444	-1.431	12.526	O.co2	1	UNK0	0.000	
26	  O3	7.045	-3.425	13.488	O.3	1	UNK0	0.000	
27	 C20	8.465	-3.188	13.365	C.3	1	UNK0	0.000	
28	 C21	9.211	-3.455	14.663	C.3	1	UNK0	0.000	
29	 C22	2.624	-0.587	21.768	C.3	1	UNK0	0.000	
30	  N5	2.995	0.354	22.819	N.pl3	1	UNK0	0.000	
31	 C23	5.824	3.147	21.480	C.2	1	UNK0	0.000	
32	 C24	6.051	1.789	21.293	C.2	1	UNK0	0.000	
33	 C25	5.124	0.863	21.764	C.2	1	UNK0	0.000	
34	 C26	3.977	1.277	22.445	C.2	1	UNK0	0.000	
35	 C27	3.770	2.648	22.643	C.2	1	UNK0	0.000	
36	 C28	4.699	3.582	22.182	C.2	1	UNK0	0.000	
37	  N6	6.482	4.636	19.642	N.pl3	1	UNK0	0.000	
38	 C29	6.761	4.113	20.873	C.2	1	UNK0	0.000	
39	  N7	7.819	4.481	21.521	N.2	1	UNK0	0.000	
40	 H01	-0.310	1.465	20.757	 H	1	UNK0	0.000	
41	 H02	0.547	3.005	20.509	 H	1	UNK0	0.000	
42	 H03	0.105	1.997	19.110	 H	1	UNK0	0.000	
43	 H04	2.934	3.706	19.079	 H	1	UNK0	0.000	
44	 H05	4.570	3.376	17.206	 H	1	UNK0	0.000	
45	 H06	4.380	-0.901	17.717	 H	1	UNK0	0.000	
46	 H07	6.958	2.696	15.312	 H	1	UNK0	0.000	
47	 H08	5.595	3.218	15.806	 H	1	UNK0	0.000	
48	 H09	4.160	1.441	14.174	 H	1	UNK0	0.000	
49	 H10	5.513	0.753	13.881	 H	1	UNK0	0.000	
50	 H11	10.807	-0.892	17.084	 H	1	UNK0	0.000	
51	 H12	10.836	0.376	19.192	 H	1	UNK0	0.000	
52	 H13	8.717	1.429	19.994	 H	1	UNK0	0.000	
53	 H14	6.622	1.160	18.656	 H	1	UNK0	0.000	
54	 H15	4.094	-2.313	13.491	 H	1	UNK0	0.000	
55	 H16	4.929	-3.503	14.580	 H	1	UNK0	0.000	
56	 H17	8.605	-2.137	13.112	 H	1	UNK0	0.000	
57	 H18	8.864	-3.842	12.590	 H	1	UNK0	0.000	
58	 H19	10.110	-2.840	14.698	 H	1	UNK0	0.000	
59	 H20	8.570	-3.209	15.509	 H	1	UNK0	0.000	
60	 H21	9.491	-4.508	14.712	 H	1	UNK0	0.000	
61	 H22	1.913	-1.254	22.254	 H	1	UNK0	0.000	
62	 H23	3.546	-1.041	21.404	 H	1	UNK0	0.000	
63	 H24	2.579	0.340	23.739	 H	1	UNK0	0.000	
64	 H25	6.951	1.450	20.779	 H	1	UNK0	0.000	
65	 H26	5.296	-0.200	21.599	 H	1	UNK0	0.000	
66	 H27	2.875	2.989	23.163	 H	1	UNK0	0.000	
67	 H28	4.547	4.645	22.370	 H	1	UNK0	0.000	
68	 H29	7.111	5.307	19.224	 H	1	UNK0	0.000	
69	 H30	5.647	4.352	19.150	 H	1	UNK0	0.000	
70	 H31	8.454	5.151	21.112	 H	1	UNK0	0.000	
@<TRIPOS>BOND
1 37 38 1
2 38 39 2
3 31 38 1
4 31 32 1
5 31 36 2
6 32 33 2
7 33 34 1
8 34 35 2
9 30 34 1
10 35 36 1
11 29 30 1
12 1 29 1
13 1 2 2
14 1 5 1
15 2 3 1
16 3 4 1
17 3 10 2
18 4 5 1
19 4 7 2
20 5 6 1
21 7 8 1
22 8 9 2
23 9 10 1
24 9 11 1
25 11 12 1
26 11 13 1
27 11 14 1
28 12 13 1
29 14 15 2
30 14 16 1
31 15 22 1
32 22 23 1
33 23 24 1
34 24 25 2
35 24 26 1
36 26 27 1
37 27 28 1
38 16 17 1
39 16 21 2
40 17 18 2
41 18 19 1
42 19 20 2
43 20 21 1
44 6 40 1
45 6 41 1
46 6 42 1
47 7 43 1
48 8 44 1
49 10 45 1
50 12 46 1
51 12 47 1
52 13 48 1
53 13 49 1
54 18 50 1
55 19 51 1
56 20 52 1
57 21 53 1
58 23 54 1
59 23 55 1
60 27 56 1
61 27 57 1
62 28 58 1
63 28 59 1
64 28 60 1
65 29 61 1
66 29 62 1
67 30 63 1
68 32 64 1
69 33 65 1
70 35 66 1
71 36 67 1
72 37 68 1
73 37 69 1
74 39 70 1
@<TRIPOS>SUBSTRUCTURE
1	UNK0	1	GROUP	1 ****	UNK
