# created with PyMOL 2.5.0
@<TRIPOS>MOLECULE
data/FXA/cocry_dataset/1g2l_T87_LIG.pdb
39 43 1                 
SMALL
USER_CHARGES
@<TRIPOS>ATOM
1	  C1	4.894	6.506	15.776	C.2	1	UNK0	0.000	
2	  N1	5.218	5.980	16.944	N.2	1	UNK0	0.000	
3	  C2	4.782	4.702	16.773	C.2	1	UNK0	0.000	
4	  C3	3.724	4.642	15.877	C.2	1	UNK0	0.000	
5	  N2	3.644	5.956	15.450	N.pl3	1	UNK0	0.000	
6	  C4	2.371	6.650	15.539	C.3	1	UNK0	0.000	
7	  C5	2.947	3.498	15.687	C.2	1	UNK0	0.000	
8	  C6	3.344	2.371	16.416	C.2	1	UNK0	0.000	
9	  C7	4.485	2.373	17.240	C.2	1	UNK0	0.000	
10	  C8	5.241	3.546	17.365	C.2	1	UNK0	0.000	
11	  C9	4.882	1.224	18.135	C.3	1	UNK0	0.000	
12	 C10	3.770	0.848	19.139	C.3	1	UNK0	0.000	
13	 C11	5.070	1.369	19.635	C.3	1	UNK0	0.000	
14	 C12	5.712	0.167	17.419	C.2	1	UNK0	0.000	
15	  N3	5.190	-0.758	16.646	N.2	1	UNK0	0.000	
16	 C13	7.190	0.147	17.690	C.2	1	UNK0	0.000	
17	  N4	7.983	-0.484	16.780	N.2	1	UNK0	0.000	
18	 C14	9.312	-0.495	17.005	C.2	1	UNK0	0.000	
19	 C15	9.902	0.092	18.109	C.2	1	UNK0	0.000	
20	 C16	9.077	0.744	19.022	C.2	1	UNK0	0.000	
21	 C17	7.699	0.787	18.811	C.2	1	UNK0	0.000	
22	  O1	3.775	-0.723	16.555	O.3	1	UNK0	0.000	
23	 C18	3.286	-2.040	16.264	C.3	1	UNK0	0.000	
24	 C19	3.701	-2.582	14.886	C.2	1	UNK0	0.000	
25	  O2	3.318	-2.152	13.805	O.co2	1	UNK0	0.000	
26	  O3	4.539	-3.663	15.025	O.3	1	UNK0	0.000	
27	 C20	5.731	-3.684	14.209	C.3	1	UNK0	0.000	
28	 C21	6.999	-3.516	15.031	C.3	1	UNK0	0.000	
29	 C22	6.039	6.662	14.784	C.3	1	UNK0	0.000	
30	  N5	5.863	6.176	13.420	N.pl3	1	UNK0	0.000	
31	 C23	5.719	1.988	13.248	C.2	1	UNK0	0.000	
32	 C24	6.698	2.615	14.009	C.2	1	UNK0	0.000	
33	 C25	6.761	4.005	14.041	C.2	1	UNK0	0.000	
34	 C26	5.869	4.783	13.299	C.2	1	UNK0	0.000	
35	 C27	4.899	4.137	12.522	C.2	1	UNK0	0.000	
36	 C28	4.836	2.744	12.477	C.2	1	UNK0	0.000	
37	  N6	4.748	-0.128	12.467	N.pl3	1	UNK0	0.000	
38	 C29	5.600	0.518	13.318	C.2	1	UNK0	0.000	
39	  N7	6.324	-0.149	14.158	N.2	1	UNK0	0.000	
@<TRIPOS>BOND
1 1 2 2
2 1 5 1
3 1 29 1
4 2 3 1
5 3 4 1
6 3 10 2
7 4 5 1
8 4 7 2
9 5 6 1
10 7 8 1
11 8 9 2
12 9 10 1
13 9 11 1
14 11 12 1
15 11 13 1
16 11 14 1
17 12 13 1
18 14 15 2
19 14 16 1
20 15 22 1
21 16 17 1
22 16 21 2
23 17 18 2
24 18 19 1
25 19 20 2
26 20 21 1
27 22 23 1
28 23 24 1
29 24 25 2
30 24 26 1
31 26 27 1
32 27 28 1
33 29 30 1
34 30 34 1
35 31 32 1
36 31 36 2
37 31 38 1
38 32 33 2
39 33 34 1
40 34 35 2
41 35 36 1
42 37 38 1
43 38 39 2
@<TRIPOS>SUBSTRUCTURE
1	UNK0	1	GROUP	1 ****	UNK
