# created with PyMOL 2.5.0
@<TRIPOS>MOLECULE
data/FXA/cocry_dataset/1g2l_T87_LIG.pdb
70 74 1                 
SMALL
USER_CHARGES
@<TRIPOS>ATOM
1	 H28	4.547	4.645	22.370	 H	1	UNK0	0.000	
2	 H30	7.110	5.307	19.224	 H	1	UNK0	0.000	
3	 H27	2.875	2.989	23.163	 H	1	UNK0	0.000	
4	 H01	-0.310	1.465	20.757	 H	1	UNK0	0.000	
5	 H13	8.717	1.429	19.994	 H	1	UNK0	0.000	
6	 H31	8.009	4.098	22.435	 H	1	UNK0	0.000	
7	 H03	0.105	1.997	19.110	 H	1	UNK0	0.000	
8	 H26	5.296	-0.200	21.599	 H	1	UNK0	0.000	
9	 H09	4.160	1.441	14.174	 H	1	UNK0	0.000	
10	 H04	2.934	3.706	19.079	 H	1	UNK0	0.000	
11	 H07	6.958	2.696	15.312	 H	1	UNK0	0.000	
12	 H06	4.380	-0.901	17.717	 H	1	UNK0	0.000	
13	 H17	8.605	-2.137	13.112	 H	1	UNK0	0.000	
14	 H05	4.570	3.376	17.206	 H	1	UNK0	0.000	
15	 H12	10.836	0.376	19.192	 H	1	UNK0	0.000	
16	 H11	10.807	-0.892	17.084	 H	1	UNK0	0.000	
17	 H02	0.547	3.005	20.509	 H	1	UNK0	0.000	
18	 H10	5.513	0.753	13.881	 H	1	UNK0	0.000	
19	 H16	4.929	-3.503	14.580	 H	1	UNK0	0.000	
20	 H15	4.094	-2.313	13.491	 H	1	UNK0	0.000	
21	 H14	6.622	1.160	18.656	 H	1	UNK0	0.000	
22	 H25	6.951	1.450	20.779	 H	1	UNK0	0.000	
23	 H20	8.570	-3.209	15.509	 H	1	UNK0	0.000	
24	 H19	10.110	-2.840	14.698	 H	1	UNK0	0.000	
25	 H18	8.864	-3.842	12.590	 H	1	UNK0	0.000	
26	 H21	9.491	-4.508	14.712	 H	1	UNK0	0.000	
27	 H24	2.579	0.340	23.739	 H	1	UNK0	0.000	
28	 H23	2.003	-1.354	22.230	 H	1	UNK0	0.000	
29	 H22	3.581	-0.916	21.362	 H	1	UNK0	0.000	
30	 H08	5.595	3.218	15.806	 H	1	UNK0	0.000	
31	 H29	5.647	4.352	19.150	 H	1	UNK0	0.000	
32	  C1	1.868	-0.073	20.551	C.2	1	UNK0	0.000	
33	  N1	2.166	-0.658	19.404	N.2	1	UNK0	0.000	
34	  C2	2.989	0.275	18.853	C.2	1	UNK0	0.000	
35	  C3	2.687	1.551	19.306	C.2	1	UNK0	0.000	
36	  N2	1.706	1.289	20.246	N.pl3	1	UNK0	0.000	
37	  C4	0.433	1.982	20.149	C.3	1	UNK0	0.000	
38	  C5	3.221	2.710	18.742	C.2	1	UNK0	0.000	
39	  C6	4.151	2.508	17.715	C.2	1	UNK0	0.000	
40	  C7	4.562	1.222	17.317	C.2	1	UNK0	0.000	
41	  C8	4.009	0.098	17.945	C.2	1	UNK0	0.000	
42	  C9	5.466	0.952	16.138	C.3	1	UNK0	0.000	
43	 C10	5.977	2.251	15.477	C.3	1	UNK0	0.000	
44	 C11	5.101	1.325	14.712	C.3	1	UNK0	0.000	
45	 C12	6.369	-0.258	16.342	C.2	1	UNK0	0.000	
46	  N3	6.080	-1.458	15.894	N.2	1	UNK0	0.000	
47	 C13	7.607	-0.064	17.172	C.2	1	UNK0	0.000	
48	  N4	8.759	-0.629	16.716	N.2	1	UNK0	0.000	
49	 C14	9.879	-0.449	17.445	C.2	1	UNK0	0.000	
50	 C15	9.911	0.269	18.625	C.2	1	UNK0	0.000	
51	 C16	8.727	0.852	19.070	C.2	1	UNK0	0.000	
52	 C17	7.554	0.697	18.331	C.2	1	UNK0	0.000	
53	  O1	4.831	-1.555	15.229	O.3	1	UNK0	0.000	
54	 C18	4.938	-2.500	14.155	C.3	1	UNK0	0.000	
55	 C19	6.209	-2.350	13.300	C.2	1	UNK0	0.000	
56	  O2	6.444	-1.431	12.526	O.co2	1	UNK0	0.000	
57	  O3	7.045	-3.425	13.488	O.3	1	UNK0	0.000	
58	 C20	8.465	-3.188	13.365	C.3	1	UNK0	0.000	
59	 C21	9.211	-3.455	14.663	C.3	1	UNK0	0.000	
60	 C22	2.624	-0.587	21.768	C.3	1	UNK0	0.000	
61	  N5	2.995	0.354	22.819	N.pl3	1	UNK0	0.000	
62	 C23	5.824	3.147	21.480	C.2	1	UNK0	0.000	
63	 C24	6.051	1.789	21.293	C.2	1	UNK0	0.000	
64	 C25	5.124	0.863	21.764	C.2	1	UNK0	0.000	
65	 C26	3.977	1.277	22.445	C.2	1	UNK0	0.000	
66	 C27	3.770	2.648	22.643	C.2	1	UNK0	0.000	
67	 C28	4.699	3.582	22.182	C.2	1	UNK0	0.000	
68	  N6	6.482	4.636	19.642	N.pl3	1	UNK0	0.000	
69	 C29	6.761	4.113	20.873	C.2	1	UNK0	0.000	
70	  N7	7.819	4.481	21.521	N.2	1	UNK0	0.000	
@<TRIPOS>BOND
1 32 33 2
2 32 36 1
3 33 34 1
4 34 35 1
5 34 41 2
6 35 36 1
7 35 38 2
8 36 37 1
9 4 37 1
10 7 37 1
11 17 37 1
12 10 38 1
13 38 39 1
14 14 39 1
15 39 40 2
16 40 41 1
17 40 42 1
18 12 41 1
19 42 43 1
20 42 44 1
21 42 45 1
22 11 43 1
23 30 43 1
24 43 44 1
25 9 44 1
26 18 44 1
27 45 46 2
28 45 47 1
29 46 53 1
30 47 48 1
31 47 52 2
32 48 49 2
33 16 49 1
34 49 50 1
35 15 50 1
36 50 51 2
37 5 51 1
38 51 52 1
39 21 52 1
40 53 54 1
41 19 54 1
42 20 54 1
43 54 55 1
44 55 56 2
45 55 57 1
46 57 58 1
47 13 58 1
48 25 58 1
49 58 59 1
50 23 59 1
51 24 59 1
52 26 59 1
53 28 60 1
54 29 60 1
55 32 60 1
56 27 61 1
57 60 61 1
58 62 63 1
59 62 67 2
60 22 63 1
61 63 64 2
62 8 64 1
63 64 65 1
64 61 65 1
65 65 66 2
66 3 66 1
67 66 67 1
68 1 67 1
69 2 68 1
70 31 68 1
71 68 69 1
72 62 69 1
73 69 70 2
74 6 70 1
@<TRIPOS>SUBSTRUCTURE
1	UNK0	1	GROUP	1 ****	UNK
