# created with PyMOL 2.5.0
@<TRIPOS>MOLECULE
data/FXA/cocry_dataset/1g2l_T87_LIG.pdb
39 43 1                 
SMALL
USER_CHARGES
@<TRIPOS>ATOM
1	  C1	1.457	0.021	21.253	C.2	1	UNK0	0.000	
2	  N1	1.727	-0.715	20.189	N.2	1	UNK0	0.000	
3	  C2	2.528	0.136	19.492	C.2	1	UNK0	0.000	
4	  C3	2.229	1.461	19.775	C.2	1	UNK0	0.000	
5	  N2	1.276	1.327	20.770	N.pl3	1	UNK0	0.000	
6	  C4	-0.004	1.996	20.614	C.3	1	UNK0	0.000	
7	  C5	2.740	2.533	19.042	C.2	1	UNK0	0.000	
8	  C6	3.642	2.196	18.027	C.2	1	UNK0	0.000	
9	  C7	4.051	0.869	17.798	C.2	1	UNK0	0.000	
10	  C8	3.524	-0.161	18.589	C.2	1	UNK0	0.000	
11	  C9	4.924	0.442	16.642	C.3	1	UNK0	0.000	
12	 C10	4.100	0.011	15.409	C.3	1	UNK0	0.000	
13	 C11	4.959	-0.979	16.110	C.3	1	UNK0	0.000	
14	 C12	6.192	1.277	16.510	C.2	1	UNK0	0.000	
15	  N3	6.277	2.345	15.751	N.2	1	UNK0	0.000	
16	 C13	7.419	0.788	17.228	C.2	1	UNK0	0.000	
17	  N4	8.345	0.116	16.491	N.2	1	UNK0	0.000	
18	 C14	9.457	-0.315	17.122	C.2	1	UNK0	0.000	
19	 C15	9.694	-0.115	18.468	C.2	1	UNK0	0.000	
20	 C16	8.742	0.586	19.203	C.2	1	UNK0	0.000	
21	 C17	7.587	1.058	18.579	C.2	1	UNK0	0.000	
22	  O1	5.098	2.648	15.024	O.3	1	UNK0	0.000	
23	 C18	5.153	4.011	14.579	C.3	1	UNK0	0.000	
24	 C19	5.593	5.015	15.658	C.2	1	UNK0	0.000	
25	  O2	5.349	4.929	16.855	O.co2	1	UNK0	0.000	
26	  O3	6.271	6.068	15.090	O.3	1	UNK0	0.000	
27	 C20	7.139	5.769	13.974	C.3	1	UNK0	0.000	
28	 C21	8.419	6.591	13.999	C.3	1	UNK0	0.000	
29	 C22	2.249	-0.319	22.507	C.3	1	UNK0	0.000	
30	  N5	2.711	0.765	23.367	N.pl3	1	UNK0	0.000	
31	 C23	5.667	3.093	21.514	C.2	1	UNK0	0.000	
32	 C24	5.736	1.707	21.446	C.2	1	UNK0	0.000	
33	 C25	4.770	0.937	22.087	C.2	1	UNK0	0.000	
34	 C26	3.742	1.536	22.818	C.2	1	UNK0	0.000	
35	 C27	3.695	2.933	22.894	C.2	1	UNK0	0.000	
36	 C28	4.666	3.712	22.262	C.2	1	UNK0	0.000	
37	  N6	6.394	4.132	19.411	N.pl3	1	UNK0	0.000	
38	 C29	6.636	3.890	20.734	C.2	1	UNK0	0.000	
39	  N7	7.685	4.378	21.312	N.2	1	UNK0	0.000	
@<TRIPOS>BOND
1 1 2 2
2 1 5 1
3 1 29 1
4 2 3 1
5 3 4 1
6 3 10 2
7 4 5 1
8 4 7 2
9 5 6 1
10 7 8 1
11 8 9 2
12 9 10 1
13 9 11 1
14 11 12 1
15 11 13 1
16 11 14 1
17 12 13 1
18 14 15 2
19 14 16 1
20 15 22 1
21 16 17 1
22 16 21 2
23 17 18 2
24 18 19 1
25 19 20 2
26 20 21 1
27 22 23 1
28 23 24 1
29 24 25 2
30 24 26 1
31 26 27 1
32 27 28 1
33 29 30 1
34 30 34 1
35 31 32 1
36 31 36 2
37 31 38 1
38 32 33 2
39 33 34 1
40 34 35 2
41 35 36 1
42 37 38 1
43 38 39 2
@<TRIPOS>SUBSTRUCTURE
1	UNK0	1	GROUP	1 ****	UNK
