# created with PyMOL 2.5.0
@<TRIPOS>MOLECULE
data/FXA/cocry_dataset/1g2l_T87_LIG.pdb
39 43 1                 
SMALL
USER_CHARGES
@<TRIPOS>ATOM
1	  C1	1.868	-0.073	20.551	C.2	1	UNK0	0.000	
2	  N1	2.166	-0.658	19.404	N.2	1	UNK0	0.000	
3	  C2	2.989	0.275	18.853	C.2	1	UNK0	0.000	
4	  C3	2.687	1.551	19.306	C.2	1	UNK0	0.000	
5	  N2	1.706	1.289	20.246	N.pl3	1	UNK0	0.000	
6	  C4	0.433	1.982	20.149	C.3	1	UNK0	0.000	
7	  C5	3.221	2.710	18.742	C.2	1	UNK0	0.000	
8	  C6	4.151	2.508	17.715	C.2	1	UNK0	0.000	
9	  C7	4.562	1.222	17.317	C.2	1	UNK0	0.000	
10	  C8	4.009	0.098	17.945	C.2	1	UNK0	0.000	
11	  C9	5.466	0.952	16.138	C.3	1	UNK0	0.000	
12	 C10	5.977	2.251	15.477	C.3	1	UNK0	0.000	
13	 C11	5.101	1.325	14.712	C.3	1	UNK0	0.000	
14	 C12	6.369	-0.258	16.342	C.2	1	UNK0	0.000	
15	  N3	6.080	-1.458	15.894	N.2	1	UNK0	0.000	
16	 C13	7.607	-0.064	17.172	C.2	1	UNK0	0.000	
17	  N4	8.759	-0.629	16.716	N.2	1	UNK0	0.000	
18	 C14	9.879	-0.449	17.445	C.2	1	UNK0	0.000	
19	 C15	9.911	0.269	18.625	C.2	1	UNK0	0.000	
20	 C16	8.727	0.852	19.070	C.2	1	UNK0	0.000	
21	 C17	7.554	0.697	18.331	C.2	1	UNK0	0.000	
22	  O1	4.831	-1.555	15.229	O.3	1	UNK0	0.000	
23	 C18	4.938	-2.500	14.155	C.3	1	UNK0	0.000	
24	 C19	6.209	-2.350	13.300	C.2	1	UNK0	0.000	
25	  O2	6.444	-1.431	12.526	O.co2	1	UNK0	0.000	
26	  O3	7.045	-3.425	13.488	O.3	1	UNK0	0.000	
27	 C20	8.465	-3.188	13.365	C.3	1	UNK0	0.000	
28	 C21	9.211	-3.455	14.663	C.3	1	UNK0	0.000	
29	 C22	2.624	-0.587	21.768	C.3	1	UNK0	0.000	
30	  N5	2.995	0.354	22.819	N.pl3	1	UNK0	0.000	
31	 C23	5.824	3.147	21.480	C.2	1	UNK0	0.000	
32	 C24	6.051	1.789	21.293	C.2	1	UNK0	0.000	
33	 C25	5.124	0.863	21.764	C.2	1	UNK0	0.000	
34	 C26	3.977	1.277	22.445	C.2	1	UNK0	0.000	
35	 C27	3.770	2.648	22.643	C.2	1	UNK0	0.000	
36	 C28	4.699	3.582	22.182	C.2	1	UNK0	0.000	
37	  N6	6.482	4.636	19.642	N.pl3	1	UNK0	0.000	
38	 C29	6.761	4.113	20.873	C.2	1	UNK0	0.000	
39	  N7	7.819	4.481	21.521	N.2	1	UNK0	0.000	
@<TRIPOS>BOND
1 1 2 2
2 1 5 1
3 1 29 1
4 2 3 1
5 3 4 1
6 3 10 2
7 4 5 1
8 4 7 2
9 5 6 1
10 7 8 1
11 8 9 2
12 9 10 1
13 9 11 1
14 11 12 1
15 11 13 1
16 11 14 1
17 12 13 1
18 14 15 2
19 14 16 1
20 15 22 1
21 16 17 1
22 16 21 2
23 17 18 2
24 18 19 1
25 19 20 2
26 20 21 1
27 22 23 1
28 23 24 1
29 24 25 2
30 24 26 1
31 26 27 1
32 27 28 1
33 29 30 1
34 30 34 1
35 31 32 1
36 31 36 2
37 31 38 1
38 32 33 2
39 33 34 1
40 34 35 2
41 35 36 1
42 37 38 1
43 38 39 2
@<TRIPOS>SUBSTRUCTURE
1	UNK0	1	GROUP	1 ****	UNK
