# created with PyMOL 2.5.0
@<TRIPOS>MOLECULE
data/FXA/cocry_dataset/1g2m_R11_LIG.pdb
32 36 1                 
SMALL
USER_CHARGES
@<TRIPOS>ATOM
1	  C1	5.245	6.525	19.967	C.2	1	UNK0	0.000	
2	  N1	6.478	6.042	20.014	N.2	1	UNK0	0.000	
3	  C2	6.285	4.916	20.758	C.2	1	UNK0	0.000	
4	  C3	5.162	5.048	21.572	C.2	1	UNK0	0.000	
5	  N2	4.712	6.305	21.231	N.pl3	1	UNK0	0.000	
6	  C4	4.225	7.298	22.154	C.3	1	UNK0	0.000	
7	  C5	4.709	4.044	22.427	C.2	1	UNK0	0.000	
8	  C6	5.315	2.797	22.240	C.2	1	UNK0	0.000	
9	  C7	6.372	2.599	21.324	C.2	1	UNK0	0.000	
10	  C8	6.949	3.697	20.671	C.2	1	UNK0	0.000	
11	  C9	4.422	6.298	18.707	C.3	1	UNK0	0.000	
12	  N3	5.112	6.465	17.443	N.pl3	1	UNK0	0.000	
13	 C10	5.732	3.213	14.868	C.2	1	UNK0	0.000	
14	 C11	5.926	4.507	14.409	C.2	1	UNK0	0.000	
15	 C12	5.687	5.585	15.257	C.2	1	UNK0	0.000	
16	 C13	5.266	5.401	16.579	C.2	1	UNK0	0.000	
17	 C14	5.040	4.082	17.018	C.2	1	UNK0	0.000	
18	 C15	5.265	2.997	16.162	C.2	1	UNK0	0.000	
19	  N4	6.390	0.869	14.482	N.pl3	1	UNK0	0.000	
20	 C16	6.018	2.071	13.955	C.2	1	UNK0	0.000	
21	  N5	5.900	2.225	12.684	N.2	1	UNK0	0.000	
22	 C17	6.687	1.204	20.851	C.3	1	UNK0	0.000	
23	  N6	6.731	1.022	19.410	N.pl3	1	UNK0	0.000	
24	 C18	5.652	0.676	18.618	C.2	1	UNK0	0.000	
25	  N7	6.055	0.018	17.549	N.2	1	UNK0	0.000	
26	 C19	7.422	-0.033	17.632	C.2	1	UNK0	0.000	
27	 C20	7.882	0.680	18.730	C.2	1	UNK0	0.000	
28	 C21	9.243	0.839	19.018	C.2	1	UNK0	0.000	
29	 C22	10.147	0.175	18.182	C.2	1	UNK0	0.000	
30	 C23	9.704	-0.610	17.116	C.2	1	UNK0	0.000	
31	 C24	8.340	-0.709	16.817	C.2	1	UNK0	0.000	
32	 C25	4.226	0.899	18.975	C.3	1	UNK0	0.000	
@<TRIPOS>BOND
1 1 2 2
2 1 5 1
3 1 11 1
4 2 3 1
5 3 4 1
6 3 10 2
7 4 5 1
8 4 7 2
9 5 6 1
10 7 8 1
11 8 9 2
12 9 10 1
13 9 22 1
14 11 12 1
15 12 16 1
16 13 14 1
17 13 18 2
18 13 20 1
19 14 15 2
20 15 16 1
21 16 17 2
22 17 18 1
23 19 20 1
24 20 21 2
25 22 23 1
26 23 24 1
27 23 27 1
28 24 25 2
29 24 32 1
30 25 26 1
31 26 27 1
32 26 31 2
33 27 28 2
34 28 29 1
35 29 30 2
36 30 31 1
@<TRIPOS>SUBSTRUCTURE
1	UNK0	1	GROUP	1 ****	UNK
