# created with PyMOL 2.5.0
@<TRIPOS>MOLECULE
data/FXA/cocry_dataset/1g2m_R11_LIG.pdb
32 36 1                 
SMALL
USER_CHARGES
@<TRIPOS>ATOM
1	  C1	4.485	5.767	20.476	C.2	1	UNK0	0.000	
2	  N1	4.538	5.234	19.263	N.2	1	UNK0	0.000	
3	  C2	5.603	4.394	19.399	C.2	1	UNK0	0.000	
4	  C3	6.458	4.838	20.404	C.2	1	UNK0	0.000	
5	  N2	5.807	5.966	20.851	N.pl3	1	UNK0	0.000	
6	  C4	6.437	7.220	21.183	C.3	1	UNK0	0.000	
7	  C5	7.622	4.166	20.778	C.2	1	UNK0	0.000	
8	  C6	7.753	2.880	20.244	C.2	1	UNK0	0.000	
9	  C7	6.828	2.347	19.319	C.2	1	UNK0	0.000	
10	  C8	5.815	3.159	18.793	C.2	1	UNK0	0.000	
11	  C9	3.451	5.236	21.459	C.3	1	UNK0	0.000	
12	  N3	3.960	4.565	22.638	N.pl3	1	UNK0	0.000	
13	 C10	3.313	0.440	23.030	C.2	1	UNK0	0.000	
14	 C11	2.539	1.334	23.753	C.2	1	UNK0	0.000	
15	 C12	2.778	2.702	23.645	C.2	1	UNK0	0.000	
16	 C13	3.780	3.209	22.809	C.2	1	UNK0	0.000	
17	 C14	4.580	2.285	22.110	C.2	1	UNK0	0.000	
18	 C15	4.351	0.909	22.228	C.2	1	UNK0	0.000	
19	  N4	3.288	-1.667	24.309	N.pl3	1	UNK0	0.000	
20	 C16	3.026	-1.018	23.138	C.2	1	UNK0	0.000	
21	  N5	2.523	-1.646	22.135	N.2	1	UNK0	0.000	
22	 C17	6.765	0.856	19.114	C.3	1	UNK0	0.000	
23	  N6	7.333	0.366	17.869	N.pl3	1	UNK0	0.000	
24	 C18	6.609	-0.165	16.817	C.2	1	UNK0	0.000	
25	  N7	7.339	-1.031	16.142	N.2	1	UNK0	0.000	
26	 C19	8.569	-1.036	16.747	C.2	1	UNK0	0.000	
27	 C20	8.630	-0.093	17.764	C.2	1	UNK0	0.000	
28	 C21	9.792	0.151	18.506	C.2	1	UNK0	0.000	
29	 C22	10.898	-0.661	18.233	C.2	1	UNK0	0.000	
30	 C23	10.836	-1.667	17.267	C.2	1	UNK0	0.000	
31	 C24	9.679	-1.855	16.500	C.2	1	UNK0	0.000	
32	 C25	5.170	0.103	16.552	C.3	1	UNK0	0.000	
@<TRIPOS>BOND
1 1 2 2
2 1 5 1
3 1 11 1
4 2 3 1
5 3 4 1
6 3 10 2
7 4 5 1
8 4 7 2
9 5 6 1
10 7 8 1
11 8 9 2
12 9 10 1
13 9 22 1
14 11 12 1
15 12 16 1
16 13 14 1
17 13 18 2
18 13 20 1
19 14 15 2
20 15 16 1
21 16 17 2
22 17 18 1
23 19 20 1
24 20 21 2
25 22 23 1
26 23 24 1
27 23 27 1
28 24 25 2
29 24 32 1
30 25 26 1
31 26 27 1
32 26 31 2
33 27 28 2
34 28 29 1
35 29 30 2
36 30 31 1
@<TRIPOS>SUBSTRUCTURE
1	UNK0	1	GROUP	1 ****	UNK
