# created with PyMOL 2.5.0
@<TRIPOS>MOLECULE
data/FXA/cocry_dataset/1g2m_R11_LIG.pdb
57 61 1                 
SMALL
USER_CHARGES
@<TRIPOS>ATOM
1	  C1	5.245	6.525	19.967	C.2	1	UNK0	0.000	
2	  N1	6.478	6.042	20.014	N.2	1	UNK0	0.000	
3	  C2	6.285	4.916	20.758	C.2	1	UNK0	0.000	
4	  C3	5.162	5.048	21.572	C.2	1	UNK0	0.000	
5	  N2	4.712	6.305	21.231	N.pl3	1	UNK0	0.000	
6	  C4	4.225	7.298	22.154	C.3	1	UNK0	0.000	
7	  C5	4.709	4.044	22.427	C.2	1	UNK0	0.000	
8	  C6	5.315	2.797	22.240	C.2	1	UNK0	0.000	
9	  C7	6.372	2.599	21.324	C.2	1	UNK0	0.000	
10	  C8	6.949	3.697	20.671	C.2	1	UNK0	0.000	
11	  C9	4.422	6.298	18.707	C.3	1	UNK0	0.000	
12	  N3	5.112	6.465	17.443	N.pl3	1	UNK0	0.000	
13	 C10	5.732	3.213	14.868	C.2	1	UNK0	0.000	
14	 C11	5.926	4.507	14.409	C.2	1	UNK0	0.000	
15	 C12	5.687	5.585	15.257	C.2	1	UNK0	0.000	
16	 C13	5.266	5.401	16.579	C.2	1	UNK0	0.000	
17	 C14	5.040	4.082	17.018	C.2	1	UNK0	0.000	
18	 C15	5.265	2.997	16.162	C.2	1	UNK0	0.000	
19	  N4	6.390	0.869	14.482	N.pl3	1	UNK0	0.000	
20	 C16	6.018	2.071	13.955	C.2	1	UNK0	0.000	
21	  N5	5.900	2.225	12.684	N.2	1	UNK0	0.000	
22	 C17	6.687	1.204	20.851	C.3	1	UNK0	0.000	
23	  N6	6.731	1.022	19.410	N.pl3	1	UNK0	0.000	
24	 C18	5.652	0.676	18.618	C.2	1	UNK0	0.000	
25	  N7	6.055	0.018	17.549	N.2	1	UNK0	0.000	
26	 C19	7.422	-0.033	17.632	C.2	1	UNK0	0.000	
27	 C20	7.882	0.680	18.730	C.2	1	UNK0	0.000	
28	 C21	9.243	0.839	19.018	C.2	1	UNK0	0.000	
29	 C22	10.147	0.175	18.182	C.2	1	UNK0	0.000	
30	 C23	9.704	-0.610	17.116	C.2	1	UNK0	0.000	
31	 C24	8.340	-0.709	16.817	C.2	1	UNK0	0.000	
32	 C25	4.226	0.899	18.975	C.3	1	UNK0	0.000	
33	 H01	3.216	7.034	22.472	 H	1	UNK0	0.000	
34	 H02	4.880	7.338	23.025	 H	1	UNK0	0.000	
35	 H03	4.209	8.272	21.666	 H	1	UNK0	0.000	
36	 H04	3.943	4.218	23.183	 H	1	UNK0	0.000	
37	 H05	4.959	1.947	22.823	 H	1	UNK0	0.000	
38	 H06	7.883	3.598	20.117	 H	1	UNK0	0.000	
39	 H07	4.132	5.248	18.739	 H	1	UNK0	0.000	
40	 H08	3.589	7.000	18.724	 H	1	UNK0	0.000	
41	 H09	5.484	7.370	17.193	 H	1	UNK0	0.000	
42	 H10	6.264	4.679	13.387	 H	1	UNK0	0.000	
43	 H11	5.832	6.598	14.881	 H	1	UNK0	0.000	
44	 H12	4.687	3.905	18.033	 H	1	UNK0	0.000	
45	 H13	5.075	1.982	16.510	 H	1	UNK0	0.000	
46	 H14	6.582	0.087	13.871	 H	1	UNK0	0.000	
47	 H15	6.475	0.761	15.482	 H	1	UNK0	0.000	
48	 H16	6.088	1.452	12.062	 H	1	UNK0	0.000	
49	 H17	5.868	0.579	21.204	 H	1	UNK0	0.000	
50	 H18	7.661	0.926	21.254	 H	1	UNK0	0.000	
51	 H19	9.583	1.451	19.854	 H	1	UNK0	0.000	
52	 H20	11.217	0.272	18.366	 H	1	UNK0	0.000	
53	 H21	10.429	-1.152	16.509	 H	1	UNK0	0.000	
54	 H22	7.998	-1.299	15.967	 H	1	UNK0	0.000	
55	 H23	3.605	0.162	18.465	 H	1	UNK0	0.000	
56	 H24	4.101	0.795	20.053	 H	1	UNK0	0.000	
57	 H25	3.927	1.901	18.668	 H	1	UNK0	0.000	
@<TRIPOS>BOND
1 19 20 1
2 20 21 2
3 13 20 1
4 13 14 1
5 13 18 2
6 14 15 2
7 15 16 1
8 16 17 2
9 12 16 1
10 17 18 1
11 11 12 1
12 1 11 1
13 1 2 2
14 1 5 1
15 2 3 1
16 3 4 1
17 3 10 2
18 4 5 1
19 4 7 2
20 5 6 1
21 7 8 1
22 8 9 2
23 9 10 1
24 9 22 1
25 22 23 1
26 23 24 1
27 23 27 1
28 24 25 2
29 24 32 1
30 25 26 1
31 26 27 1
32 26 31 2
33 27 28 2
34 28 29 1
35 29 30 2
36 30 31 1
37 6 33 1
38 6 34 1
39 6 35 1
40 7 36 1
41 8 37 1
42 10 38 1
43 11 39 1
44 11 40 1
45 12 41 1
46 14 42 1
47 15 43 1
48 17 44 1
49 18 45 1
50 19 46 1
51 19 47 1
52 21 48 1
53 22 49 1
54 22 50 1
55 28 51 1
56 29 52 1
57 30 53 1
58 31 54 1
59 32 55 1
60 32 56 1
61 32 57 1
@<TRIPOS>SUBSTRUCTURE
1	UNK0	1	GROUP	1 ****	UNK
