# created with PyMOL 2.5.0
@<TRIPOS>MOLECULE
data/FXA/cocry_dataset/1g2m_R11_LIG.pdb
32 36 1                 
SMALL
USER_CHARGES
@<TRIPOS>ATOM
1	  C1	4.472	2.770	11.616	C.2	1	UNK0	0.000	
2	  N1	4.817	1.490	11.608	N.2	1	UNK0	0.000	
3	  C2	5.436	1.383	12.817	C.2	1	UNK0	0.000	
4	  C3	5.937	2.617	13.226	C.2	1	UNK0	0.000	
5	  N2	5.545	3.438	12.192	N.pl3	1	UNK0	0.000	
6	  C4	6.352	4.469	11.590	C.3	1	UNK0	0.000	
7	  C5	6.604	2.815	14.435	C.2	1	UNK0	0.000	
8	  C6	6.528	1.742	15.329	C.2	1	UNK0	0.000	
9	  C7	5.909	0.518	14.991	C.2	1	UNK0	0.000	
10	  C8	5.473	0.291	13.679	C.2	1	UNK0	0.000	
11	  C9	3.034	3.134	11.953	C.3	1	UNK0	0.000	
12	  N3	2.834	4.352	12.712	N.pl3	1	UNK0	0.000	
13	 C10	4.154	4.517	16.690	C.2	1	UNK0	0.000	
14	 C11	3.357	3.464	16.267	C.2	1	UNK0	0.000	
15	 C12	2.894	3.430	14.955	C.2	1	UNK0	0.000	
16	 C13	3.222	4.431	14.033	C.2	1	UNK0	0.000	
17	 C14	4.002	5.511	14.489	C.2	1	UNK0	0.000	
18	 C15	4.457	5.555	15.812	C.2	1	UNK0	0.000	
19	  N4	5.867	3.947	18.368	N.pl3	1	UNK0	0.000	
20	 C16	4.661	4.523	18.090	C.2	1	UNK0	0.000	
21	  N5	3.967	5.080	19.019	N.2	1	UNK0	0.000	
22	 C17	5.475	-0.418	16.089	C.3	1	UNK0	0.000	
23	  N6	6.047	-0.163	17.400	N.pl3	1	UNK0	0.000	
24	 C18	5.441	0.569	18.405	C.2	1	UNK0	0.000	
25	  N7	6.348	1.130	19.180	N.2	1	UNK0	0.000	
26	 C19	7.563	0.726	18.689	C.2	1	UNK0	0.000	
27	 C20	7.405	-0.170	17.641	C.2	1	UNK0	0.000	
28	 C21	8.486	-0.784	16.996	C.2	1	UNK0	0.000	
29	 C22	9.767	-0.396	17.403	C.2	1	UNK0	0.000	
30	 C23	9.950	0.560	18.403	C.2	1	UNK0	0.000	
31	 C24	8.853	1.118	19.070	C.2	1	UNK0	0.000	
32	 C25	3.978	0.800	18.528	C.3	1	UNK0	0.000	
@<TRIPOS>BOND
1 1 2 2
2 1 5 1
3 1 11 1
4 2 3 1
5 3 4 1
6 3 10 2
7 4 5 1
8 4 7 2
9 5 6 1
10 7 8 1
11 8 9 2
12 9 10 1
13 9 22 1
14 11 12 1
15 12 16 1
16 13 14 1
17 13 18 2
18 13 20 1
19 14 15 2
20 15 16 1
21 16 17 2
22 17 18 1
23 19 20 1
24 20 21 2
25 22 23 1
26 23 24 1
27 23 27 1
28 24 25 2
29 24 32 1
30 25 26 1
31 26 27 1
32 26 31 2
33 27 28 2
34 28 29 1
35 29 30 2
36 30 31 1
@<TRIPOS>SUBSTRUCTURE
1	UNK0	1	GROUP	1 ****	UNK
