# created with PyMOL 2.5.0
@<TRIPOS>MOLECULE
data/FXA/cocry_dataset/1ioe_XMA_LIG.pdb
67 72 1                 
SMALL
USER_CHARGES
@<TRIPOS>ATOM
1	 H07	4.246	8.398	19.119	 H	1	UNK0	0.000	
2	 H27	9.800	8.250	19.831	 H	1	UNK0	0.000	
3	 H28	8.607	9.327	20.595	 H	1	UNK0	0.000	
4	 H12	1.811	4.602	17.520	 H	1	UNK0	0.000	
5	 H09	4.569	7.312	17.054	 H	1	UNK0	0.000	
6	 H25	8.214	5.800	21.038	 H	1	UNK0	0.000	
7	 H02	3.686	3.432	21.040	 H	1	UNK0	0.000	
8	 H26	7.231	7.111	21.904	 H	1	UNK0	0.000	
9	 H08	2.527	7.822	19.212	 H	1	UNK0	0.000	
10	 H03	7.390	4.201	19.754	 H	1	UNK0	0.000	
11	 H06	3.026	6.063	21.529	 H	1	UNK0	0.000	
12	 H05	3.932	7.562	21.439	 H	1	UNK0	0.000	
13	 H16	3.765	3.944	12.960	 H	1	UNK0	0.000	
14	 H04	7.293	4.093	21.551	 H	1	UNK0	0.000	
15	 H11	3.625	4.497	17.279	 H	1	UNK0	0.000	
16	 H10	3.089	8.368	16.935	 H	1	UNK0	0.000	
17	 H01	4.733	2.520	22.204	 H	1	UNK0	0.000	
18	 H29	9.261	7.939	21.498	 H	1	UNK0	0.000	
19	 H15	3.520	4.067	15.393	 H	1	UNK0	0.000	
20	 H14	3.387	4.308	19.527	 H	1	UNK0	0.000	
21	 H13	2.067	5.610	19.527	 H	1	UNK0	0.000	
22	 H24	8.811	-2.167	15.825	 H	1	UNK0	0.000	
23	 H19	8.478	1.903	19.628	 H	1	UNK0	0.000	
24	 H18	2.133	8.102	14.938	 H	1	UNK0	0.000	
25	 H17	2.364	7.841	12.520	 H	1	UNK0	0.000	
26	 H20	5.340	0.847	16.873	 H	1	UNK0	0.000	
27	 H23	12.059	-1.112	18.422	 H	1	UNK0	0.000	
28	 H22	10.675	0.674	19.441	 H	1	UNK0	0.000	
29	 H21	6.754	-0.924	15.889	 H	1	UNK0	0.000	
30	  N1	5.697	3.194	20.490	N.3	1	UNK0	0.000	
31	  C1	4.658	3.373	21.530	C.3	1	UNK0	0.000	
32	  C2	4.851	4.652	22.395	C.2	1	UNK0	0.000	
33	  O1	4.775	4.650	23.621	O.2	1	UNK0	0.000	
34	  N2	5.100	5.825	21.686	N.pl3	1	UNK0	0.000	
35	  C3	6.121	5.719	20.663	C.3	1	UNK0	0.000	
36	  C4	6.740	4.261	20.627	C.3	1	UNK0	0.000	
37	  O2	5.457	6.113	19.419	O.3	1	UNK0	0.000	
38	  C5	4.029	6.349	19.622	C.3	1	UNK0	0.000	
39	  C6	3.944	6.511	21.149	C.3	1	UNK0	0.000	
40	  C7	3.542	7.601	18.881	C.3	1	UNK0	0.000	
41	  C8	3.532	7.464	17.353	C.3	1	UNK0	0.000	
42	  N3	2.780	6.303	16.836	N.pl3	1	UNK0	0.000	
43	  C9	2.781	5.084	17.643	C.3	1	UNK0	0.000	
44	 C10	3.028	5.263	19.146	C.3	1	UNK0	0.000	
45	 C11	2.871	6.130	15.418	C.2	1	UNK0	0.000	
46	 C12	3.286	4.943	14.789	C.2	1	UNK0	0.000	
47	 C13	3.405	4.875	13.397	C.2	1	UNK0	0.000	
48	  N4	3.102	5.885	12.565	N.2	1	UNK0	0.000	
49	 C14	2.648	7.005	13.158	C.2	1	UNK0	0.000	
50	 C15	2.516	7.163	14.538	C.2	1	UNK0	0.000	
51	  S1	5.649	2.687	18.886	S.o2	1	UNK0	0.000	
52	  O3	5.973	3.873	18.119	O.2	1	UNK0	0.000	
53	  O4	4.351	2.086	18.676	O.2	1	UNK0	0.000	
54	 C16	8.100	1.279	18.818	C.2	1	UNK0	0.000	
55	 C17	6.811	1.470	18.340	C.2	1	UNK0	0.000	
56	 C18	6.341	0.676	17.268	C.2	1	UNK0	0.000	
57	 C19	7.136	-0.317	16.710	C.2	1	UNK0	0.000	
58	 C20	8.418	-0.538	17.197	C.2	1	UNK0	0.000	
59	 C21	8.924	0.274	18.253	C.2	1	UNK0	0.000	
60	 C22	10.247	0.050	18.657	C.2	1	UNK0	0.000	
61	 C23	11.036	-0.958	18.079	C.2	1	UNK0	0.000	
62	 C24	10.513	-1.760	17.070	C.2	1	UNK0	0.000	
63	 Cl1	11.472	-3.015	16.384	Cl	1	UNK0	0.000	
64	 C25	9.216	-1.547	16.625	C.2	1	UNK0	0.000	
65	 C26	7.427	6.553	20.988	C.3	1	UNK0	0.000	
66	  O5	7.906	7.484	20.025	O.3	1	UNK0	0.000	
67	 C27	8.953	8.297	20.516	C.3	1	UNK0	0.000	
@<TRIPOS>BOND
1 30 31 1
2 30 36 1
3 7 31 1
4 17 31 1
5 31 32 1
6 32 33 2
7 32 34 1
8 34 35 1
9 34 39 1
10 35 36 1
11 35 37 1
12 35 65 1
13 10 36 1
14 14 36 1
15 37 38 1
16 38 39 1
17 38 40 1
18 38 44 1
19 11 39 1
20 12 39 1
21 1 40 1
22 9 40 1
23 40 41 1
24 5 41 1
25 16 41 1
26 41 42 1
27 42 43 1
28 42 45 1
29 4 43 1
30 15 43 1
31 43 44 1
32 20 44 1
33 21 44 1
34 45 46 1
35 45 50 2
36 19 46 1
37 46 47 2
38 13 47 1
39 47 48 1
40 48 49 2
41 25 49 1
42 49 50 1
43 24 50 1
44 30 51 1
45 51 52 2
46 51 53 2
47 23 54 1
48 54 55 1
49 54 59 2
50 51 55 1
51 55 56 2
52 26 56 1
53 56 57 1
54 29 57 1
55 57 58 2
56 58 59 1
57 58 64 1
58 59 60 1
59 28 60 1
60 60 61 2
61 27 61 1
62 61 62 1
63 62 63 1
64 62 64 2
65 22 64 1
66 6 65 1
67 8 65 1
68 65 66 1
69 66 67 1
70 2 67 1
71 3 67 1
72 18 67 1
@<TRIPOS>SUBSTRUCTURE
1	UNK0	1	GROUP	1 ****	UNK
