# created with PyMOL 2.5.0
@<TRIPOS>MOLECULE
data/FXA/cocry_dataset/1ioe_XMA_LIG.pdb
38 43 1                 
SMALL
USER_CHARGES
@<TRIPOS>ATOM
1	  N1	5.697	3.194	20.490	N.3	1	UNK0	0.000	
2	  C1	4.658	3.373	21.530	C.3	1	UNK0	0.000	
3	  C2	4.851	4.652	22.395	C.2	1	UNK0	0.000	
4	  O1	4.775	4.650	23.621	O.2	1	UNK0	0.000	
5	  N2	5.100	5.825	21.686	N.pl3	1	UNK0	0.000	
6	  C3	6.121	5.719	20.663	C.3	1	UNK0	0.000	
7	  C4	6.740	4.261	20.627	C.3	1	UNK0	0.000	
8	  O2	5.457	6.113	19.419	O.3	1	UNK0	0.000	
9	  C5	4.029	6.349	19.622	C.3	1	UNK0	0.000	
10	  C6	3.944	6.511	21.149	C.3	1	UNK0	0.000	
11	  C7	3.542	7.601	18.881	C.3	1	UNK0	0.000	
12	  C8	3.532	7.464	17.353	C.3	1	UNK0	0.000	
13	  N3	2.780	6.303	16.836	N.pl3	1	UNK0	0.000	
14	  C9	2.781	5.084	17.643	C.3	1	UNK0	0.000	
15	 C10	3.028	5.263	19.146	C.3	1	UNK0	0.000	
16	 C11	2.871	6.130	15.418	C.2	1	UNK0	0.000	
17	 C12	3.286	4.943	14.789	C.2	1	UNK0	0.000	
18	 C13	3.405	4.875	13.397	C.2	1	UNK0	0.000	
19	  N4	3.102	5.885	12.565	N.2	1	UNK0	0.000	
20	 C14	2.648	7.005	13.158	C.2	1	UNK0	0.000	
21	 C15	2.516	7.163	14.538	C.2	1	UNK0	0.000	
22	  S1	5.649	2.687	18.886	S.o2	1	UNK0	0.000	
23	  O3	5.973	3.873	18.119	O.2	1	UNK0	0.000	
24	  O4	4.351	2.086	18.676	O.2	1	UNK0	0.000	
25	 C16	8.100	1.279	18.818	C.2	1	UNK0	0.000	
26	 C17	6.811	1.470	18.340	C.2	1	UNK0	0.000	
27	 C18	6.341	0.676	17.268	C.2	1	UNK0	0.000	
28	 C19	7.136	-0.317	16.710	C.2	1	UNK0	0.000	
29	 C20	8.418	-0.538	17.197	C.2	1	UNK0	0.000	
30	 C21	8.924	0.274	18.253	C.2	1	UNK0	0.000	
31	 C22	10.247	0.050	18.657	C.2	1	UNK0	0.000	
32	 C23	11.036	-0.958	18.079	C.2	1	UNK0	0.000	
33	 C24	10.513	-1.760	17.070	C.2	1	UNK0	0.000	
34	 Cl1	11.472	-3.015	16.384	Cl	1	UNK0	0.000	
35	 C25	9.216	-1.547	16.625	C.2	1	UNK0	0.000	
36	 C26	7.427	6.553	20.988	C.3	1	UNK0	0.000	
37	  O5	7.906	7.484	20.025	O.3	1	UNK0	0.000	
38	 C27	8.953	8.297	20.516	C.3	1	UNK0	0.000	
@<TRIPOS>BOND
1 1 2 1
2 1 7 1
3 1 22 1
4 2 3 1
5 3 4 2
6 3 5 1
7 5 6 1
8 5 10 1
9 6 7 1
10 6 8 1
11 6 36 1
12 8 9 1
13 9 10 1
14 9 11 1
15 9 15 1
16 11 12 1
17 12 13 1
18 13 14 1
19 13 16 1
20 14 15 1
21 16 17 1
22 16 21 2
23 17 18 2
24 18 19 1
25 19 20 2
26 20 21 1
27 22 23 2
28 22 24 2
29 22 26 1
30 25 26 1
31 25 30 2
32 26 27 2
33 27 28 1
34 28 29 2
35 29 30 1
36 29 35 1
37 30 31 1
38 31 32 2
39 32 33 1
40 33 34 1
41 33 35 2
42 36 37 1
43 37 38 1
@<TRIPOS>SUBSTRUCTURE
1	UNK0	1	GROUP	1 ****	UNK
