# created with PyMOL 2.5.0
@<TRIPOS>MOLECULE
data/FXA/cocry_dataset/1ioe_XMA_LIG.pdb
67 72 1                 
SMALL
USER_CHARGES
@<TRIPOS>ATOM
1	 H07	3.456	7.024	24.934	 H	1	UNK0	0.000	
2	 H27	-0.189	1.943	23.476	 H	1	UNK0	0.000	
3	 H28	1.429	1.239	23.244	 H	1	UNK0	0.000	
4	 H12	5.253	8.526	20.762	 H	1	UNK0	0.000	
5	 H09	5.716	6.919	24.278	 H	1	UNK0	0.000	
6	 H25	3.153	3.537	24.909	 H	1	UNK0	0.000	
7	 H02	2.473	5.567	19.877	 H	1	UNK0	0.000	
8	 H26	3.049	2.116	23.724	 H	1	UNK0	0.000	
9	 H08	3.140	8.410	23.804	 H	1	UNK0	0.000	
10	 H03	4.290	2.711	22.000	 H	1	UNK0	0.000	
11	 H06	1.358	6.842	22.051	 H	1	UNK0	0.000	
12	 H05	1.329	6.481	23.767	 H	1	UNK0	0.000	
13	 H16	9.823	9.108	24.879	 H	1	UNK0	0.000	
14	 H04	2.565	2.318	21.649	 H	1	UNK0	0.000	
15	 H11	5.864	6.885	21.304	 H	1	UNK0	0.000	
16	 H10	5.332	8.627	24.778	 H	1	UNK0	0.000	
17	 H01	1.740	4.038	19.238	 H	1	UNK0	0.000	
18	 H29	0.544	0.954	24.762	 H	1	UNK0	0.000	
19	 H15	7.429	8.599	24.948	 H	1	UNK0	0.000	
20	 H14	3.696	6.484	20.776	 H	1	UNK0	0.000	
21	 H13	3.180	8.090	21.546	 H	1	UNK0	0.000	
22	 H24	7.369	-0.730	16.286	 H	1	UNK0	0.000	
23	 H19	7.883	2.986	20.417	 H	1	UNK0	0.000	
24	 H18	7.456	8.428	20.661	 H	1	UNK0	0.000	
25	 H17	9.856	8.886	20.721	 H	1	UNK0	0.000	
26	 H20	4.354	2.463	18.004	 H	1	UNK0	0.000	
27	 H23	10.988	-0.201	18.529	 H	1	UNK0	0.000	
28	 H22	9.913	1.596	19.855	 H	1	UNK0	0.000	
29	 H21	5.463	0.674	16.710	 H	1	UNK0	0.000	
30	  N1	3.445	3.783	20.399	N.3	1	UNK0	0.000	
31	  C1	2.205	4.532	20.090	C.3	1	UNK0	0.000	
32	  C2	1.163	4.522	21.244	C.2	1	UNK0	0.000	
33	  O1	-0.029	4.283	21.070	O.2	1	UNK0	0.000	
34	  N2	1.663	4.822	22.509	N.pl3	1	UNK0	0.000	
35	  C3	2.869	4.107	22.879	C.3	1	UNK0	0.000	
36	  C4	3.311	3.109	21.731	C.3	1	UNK0	0.000	
37	  O2	3.855	5.148	23.173	O.3	1	UNK0	0.000	
38	  C5	3.331	6.483	22.886	C.3	1	UNK0	0.000	
39	  C6	1.816	6.227	22.825	C.3	1	UNK0	0.000	
40	  C7	3.701	7.492	23.980	C.3	1	UNK0	0.000	
41	  C8	5.194	7.844	24.033	C.3	1	UNK0	0.000	
42	  N3	5.770	8.317	22.758	N.pl3	1	UNK0	0.000	
43	  C9	5.233	7.747	21.524	C.3	1	UNK0	0.000	
44	 C10	3.804	7.197	21.593	C.3	1	UNK0	0.000	
45	 C11	7.184	8.537	22.800	C.2	1	UNK0	0.000	
46	 C12	7.927	8.691	23.983	C.2	1	UNK0	0.000	
47	 C13	9.299	8.962	23.935	C.2	1	UNK0	0.000	
48	  N4	10.010	9.052	22.800	N.2	1	UNK0	0.000	
49	 C14	9.314	8.848	21.666	C.2	1	UNK0	0.000	
50	 C15	7.943	8.590	21.623	C.2	1	UNK0	0.000	
51	  S1	5.076	4.076	20.104	S.o2	1	UNK0	0.000	
52	  O3	5.664	4.222	21.420	O.2	1	UNK0	0.000	
53	  O4	5.141	5.210	19.210	O.2	1	UNK0	0.000	
54	 C16	7.353	2.475	19.613	C.2	1	UNK0	0.000	
55	 C17	6.041	2.819	19.319	C.2	1	UNK0	0.000	
56	 C18	5.374	2.171	18.254	C.2	1	UNK0	0.000	
57	 C19	5.997	1.168	17.522	C.2	1	UNK0	0.000	
58	 C20	7.300	0.794	17.824	C.2	1	UNK0	0.000	
59	 C21	8.004	1.458	18.869	C.2	1	UNK0	0.000	
60	 C22	9.337	1.085	19.083	C.2	1	UNK0	0.000	
61	 C23	9.951	0.071	18.332	C.2	1	UNK0	0.000	
62	 C24	9.237	-0.587	17.335	C.2	1	UNK0	0.000	
63	 Cl1	9.982	-1.852	16.435	Cl	1	UNK0	0.000	
64	 C25	7.923	-0.224	17.076	C.2	1	UNK0	0.000	
65	 C26	2.651	3.074	24.059	C.3	1	UNK0	0.000	
66	  O5	1.329	2.836	24.529	O.3	1	UNK0	0.000	
67	 C27	0.745	1.677	23.971	C.3	1	UNK0	0.000	
@<TRIPOS>BOND
1 30 31 1
2 30 36 1
3 7 31 1
4 17 31 1
5 31 32 1
6 32 33 2
7 32 34 1
8 34 35 1
9 34 39 1
10 35 36 1
11 35 37 1
12 35 65 1
13 10 36 1
14 14 36 1
15 37 38 1
16 38 39 1
17 38 40 1
18 38 44 1
19 11 39 1
20 12 39 1
21 1 40 1
22 9 40 1
23 40 41 1
24 5 41 1
25 16 41 1
26 41 42 1
27 42 43 1
28 42 45 1
29 4 43 1
30 15 43 1
31 43 44 1
32 20 44 1
33 21 44 1
34 45 46 1
35 45 50 2
36 19 46 1
37 46 47 2
38 13 47 1
39 47 48 1
40 48 49 2
41 25 49 1
42 49 50 1
43 24 50 1
44 30 51 1
45 51 52 2
46 51 53 2
47 23 54 1
48 54 55 1
49 54 59 2
50 51 55 1
51 55 56 2
52 26 56 1
53 56 57 1
54 29 57 1
55 57 58 2
56 58 59 1
57 58 64 1
58 59 60 1
59 28 60 1
60 60 61 2
61 27 61 1
62 61 62 1
63 62 63 1
64 62 64 2
65 22 64 1
66 6 65 1
67 8 65 1
68 65 66 1
69 66 67 1
70 2 67 1
71 3 67 1
72 18 67 1
@<TRIPOS>SUBSTRUCTURE
1	UNK0	1	GROUP	1 ****	UNK
