# created with PyMOL 2.5.0
@<TRIPOS>MOLECULE
data/FXA/cocry_dataset/1ioe_XMA_LIG.pdb
67 72 1                 
SMALL
USER_CHARGES
@<TRIPOS>ATOM
1	 H07	3.118	6.865	22.765	 H	1	UNK0	0.000	
2	 H27	1.149	3.368	24.611	 H	1	UNK0	0.000	
3	 H28	1.961	4.773	25.342	 H	1	UNK0	0.000	
4	 H12	5.041	7.516	18.432	 H	1	UNK0	0.000	
5	 H09	5.415	7.053	22.280	 H	1	UNK0	0.000	
6	 H25	4.054	2.150	23.114	 H	1	UNK0	0.000	
7	 H02	2.959	3.922	18.295	 H	1	UNK0	0.000	
8	 H26	2.205	2.200	23.010	 H	1	UNK0	0.000	
9	 H08	2.674	7.797	21.271	 H	1	UNK0	0.000	
10	 H03	5.034	2.186	21.235	 H	1	UNK0	0.000	
11	 H06	1.406	5.481	19.953	 H	1	UNK0	0.000	
12	 H05	1.262	5.600	21.697	 H	1	UNK0	0.000	
13	 H16	9.985	7.589	20.797	 H	1	UNK0	0.000	
14	 H04	3.458	1.366	20.926	 H	1	UNK0	0.000	
15	 H11	5.881	6.247	19.452	 H	1	UNK0	0.000	
16	 H10	4.673	8.716	22.250	 H	1	UNK0	0.000	
17	 H01	2.591	2.160	18.085	 H	1	UNK0	0.000	
18	 H29	1.594	4.764	23.600	 H	1	UNK0	0.000	
19	 H15	7.760	6.588	20.586	 H	1	UNK0	0.000	
20	 H14	3.891	5.280	18.953	 H	1	UNK0	0.000	
21	 H13	3.011	6.893	19.204	 H	1	UNK0	0.000	
22	 H24	11.125	-0.593	18.526	 H	1	UNK0	0.000	
23	 H19	5.947	0.870	17.048	 H	1	UNK0	0.000	
24	 H18	6.134	10.545	20.256	 H	1	UNK0	0.000	
25	 H17	8.408	11.425	20.419	 H	1	UNK0	0.000	
26	 H20	8.245	2.763	20.161	 H	1	UNK0	0.000	
27	 H23	8.879	-2.648	15.502	 H	1	UNK0	0.000	
28	 H22	6.962	-1.122	15.878	 H	1	UNK0	0.000	
29	 H21	10.133	1.223	19.750	 H	1	UNK0	0.000	
30	  N1	4.181	2.586	19.354	N.3	1	UNK0	0.000	
31	  C1	2.865	2.952	18.782	C.3	1	UNK0	0.000	
32	  C2	1.726	3.040	19.837	C.2	1	UNK0	0.000	
33	  O1	0.623	2.523	19.679	O.2	1	UNK0	0.000	
34	  N2	2.026	3.768	20.986	N.pl3	1	UNK0	0.000	
35	  C3	3.296	3.444	21.605	C.3	1	UNK0	0.000	
36	  C4	4.033	2.286	20.815	C.3	1	UNK0	0.000	
37	  O2	4.037	4.706	21.637	O.3	1	UNK0	0.000	
38	  C5	3.312	5.775	20.954	C.3	1	UNK0	0.000	
39	  C6	1.884	5.206	20.893	C.3	1	UNK0	0.000	
40	  C7	3.372	7.097	21.730	C.3	1	UNK0	0.000	
41	  C8	4.761	7.749	21.755	C.3	1	UNK0	0.000	
42	  N3	5.372	7.967	20.428	N.pl3	1	UNK0	0.000	
43	  C9	5.083	6.986	19.384	C.3	1	UNK0	0.000	
44	 C10	3.779	6.194	19.536	C.3	1	UNK0	0.000	
45	 C11	6.709	8.476	20.475	C.2	1	UNK0	0.000	
46	 C12	7.859	7.674	20.581	C.2	1	UNK0	0.000	
47	 C13	9.128	8.253	20.681	C.2	1	UNK0	0.000	
48	  N4	9.358	9.575	20.642	N.2	1	UNK0	0.000	
49	 C14	8.266	10.346	20.482	C.2	1	UNK0	0.000	
50	 C15	6.964	9.852	20.392	C.2	1	UNK0	0.000	
51	  S1	5.753	3.117	19.069	S.o2	1	UNK0	0.000	
52	  O3	6.201	3.631	20.347	O.2	1	UNK0	0.000	
53	  O4	5.686	4.043	17.961	O.2	1	UNK0	0.000	
54	 C16	6.865	0.952	17.631	C.2	1	UNK0	0.000	
55	 C17	6.983	1.935	18.604	C.2	1	UNK0	0.000	
56	 C18	8.165	2.011	19.376	C.2	1	UNK0	0.000	
57	 C19	9.226	1.143	19.150	C.2	1	UNK0	0.000	
58	 C20	9.132	0.173	18.160	C.2	1	UNK0	0.000	
59	 C21	7.937	0.055	17.395	C.2	1	UNK0	0.000	
60	 C22	7.875	-0.985	16.458	C.2	1	UNK0	0.000	
61	 C23	8.956	-1.854	16.245	C.2	1	UNK0	0.000	
62	 C24	10.127	-1.703	16.982	C.2	1	UNK0	0.000	
63	 Cl1	11.463	-2.750	16.698	Cl	1	UNK0	0.000	
64	 C25	10.213	-0.702	17.939	C.2	1	UNK0	0.000	
65	 C26	3.148	2.748	23.019	C.3	1	UNK0	0.000	
66	  O5	3.148	3.559	24.188	O.3	1	UNK0	0.000	
67	 C27	1.892	4.150	24.450	C.3	1	UNK0	0.000	
@<TRIPOS>BOND
1 30 31 1
2 30 36 1
3 7 31 1
4 17 31 1
5 31 32 1
6 32 33 2
7 32 34 1
8 34 35 1
9 34 39 1
10 35 36 1
11 35 37 1
12 35 65 1
13 10 36 1
14 14 36 1
15 37 38 1
16 38 39 1
17 38 40 1
18 38 44 1
19 11 39 1
20 12 39 1
21 1 40 1
22 9 40 1
23 40 41 1
24 5 41 1
25 16 41 1
26 41 42 1
27 42 43 1
28 42 45 1
29 4 43 1
30 15 43 1
31 43 44 1
32 20 44 1
33 21 44 1
34 45 46 1
35 45 50 2
36 19 46 1
37 46 47 2
38 13 47 1
39 47 48 1
40 48 49 2
41 25 49 1
42 49 50 1
43 24 50 1
44 30 51 1
45 51 52 2
46 51 53 2
47 23 54 1
48 54 55 1
49 54 59 2
50 51 55 1
51 55 56 2
52 26 56 1
53 56 57 1
54 29 57 1
55 57 58 2
56 58 59 1
57 58 64 1
58 59 60 1
59 28 60 1
60 60 61 2
61 27 61 1
62 61 62 1
63 62 63 1
64 62 64 2
65 22 64 1
66 6 65 1
67 8 65 1
68 65 66 1
69 66 67 1
70 2 67 1
71 3 67 1
72 18 67 1
@<TRIPOS>SUBSTRUCTURE
1	UNK0	1	GROUP	1 ****	UNK
