# created with PyMOL 2.5.0
@<TRIPOS>MOLECULE
data/FXA/cocry_dataset/1ioe_XMA_LIG.pdb
38 43 1                 
SMALL
USER_CHARGES
@<TRIPOS>ATOM
1	  N1	4.181	2.586	19.354	N.3	1	UNK0	0.000	
2	  C1	2.865	2.952	18.782	C.3	1	UNK0	0.000	
3	  C2	1.726	3.040	19.837	C.2	1	UNK0	0.000	
4	  O1	0.623	2.523	19.679	O.2	1	UNK0	0.000	
5	  N2	2.026	3.768	20.986	N.pl3	1	UNK0	0.000	
6	  C3	3.296	3.444	21.605	C.3	1	UNK0	0.000	
7	  C4	4.033	2.286	20.815	C.3	1	UNK0	0.000	
8	  O2	4.037	4.706	21.637	O.3	1	UNK0	0.000	
9	  C5	3.312	5.775	20.954	C.3	1	UNK0	0.000	
10	  C6	1.884	5.206	20.893	C.3	1	UNK0	0.000	
11	  C7	3.372	7.097	21.730	C.3	1	UNK0	0.000	
12	  C8	4.761	7.749	21.755	C.3	1	UNK0	0.000	
13	  N3	5.372	7.967	20.428	N.pl3	1	UNK0	0.000	
14	  C9	5.083	6.986	19.384	C.3	1	UNK0	0.000	
15	 C10	3.779	6.194	19.536	C.3	1	UNK0	0.000	
16	 C11	6.709	8.476	20.475	C.2	1	UNK0	0.000	
17	 C12	7.859	7.674	20.581	C.2	1	UNK0	0.000	
18	 C13	9.128	8.253	20.681	C.2	1	UNK0	0.000	
19	  N4	9.358	9.575	20.642	N.2	1	UNK0	0.000	
20	 C14	8.266	10.346	20.482	C.2	1	UNK0	0.000	
21	 C15	6.964	9.852	20.392	C.2	1	UNK0	0.000	
22	  S1	5.753	3.117	19.069	S.o2	1	UNK0	0.000	
23	  O3	6.201	3.631	20.347	O.2	1	UNK0	0.000	
24	  O4	5.686	4.043	17.961	O.2	1	UNK0	0.000	
25	 C16	6.865	0.952	17.631	C.2	1	UNK0	0.000	
26	 C17	6.983	1.935	18.604	C.2	1	UNK0	0.000	
27	 C18	8.165	2.011	19.376	C.2	1	UNK0	0.000	
28	 C19	9.226	1.143	19.150	C.2	1	UNK0	0.000	
29	 C20	9.132	0.173	18.160	C.2	1	UNK0	0.000	
30	 C21	7.937	0.055	17.395	C.2	1	UNK0	0.000	
31	 C22	7.875	-0.985	16.458	C.2	1	UNK0	0.000	
32	 C23	8.956	-1.854	16.245	C.2	1	UNK0	0.000	
33	 C24	10.127	-1.703	16.982	C.2	1	UNK0	0.000	
34	 Cl1	11.463	-2.750	16.698	Cl	1	UNK0	0.000	
35	 C25	10.213	-0.702	17.939	C.2	1	UNK0	0.000	
36	 C26	3.148	2.748	23.019	C.3	1	UNK0	0.000	
37	  O5	3.148	3.559	24.188	O.3	1	UNK0	0.000	
38	 C27	1.892	4.150	24.450	C.3	1	UNK0	0.000	
@<TRIPOS>BOND
1 1 2 1
2 1 7 1
3 1 22 1
4 2 3 1
5 3 4 2
6 3 5 1
7 5 6 1
8 5 10 1
9 6 7 1
10 6 8 1
11 6 36 1
12 8 9 1
13 9 10 1
14 9 11 1
15 9 15 1
16 11 12 1
17 12 13 1
18 13 14 1
19 13 16 1
20 14 15 1
21 16 17 1
22 16 21 2
23 17 18 2
24 18 19 1
25 19 20 2
26 20 21 1
27 22 23 2
28 22 24 2
29 22 26 1
30 25 26 1
31 25 30 2
32 26 27 2
33 27 28 1
34 28 29 2
35 29 30 1
36 29 35 1
37 30 31 1
38 31 32 2
39 32 33 1
40 33 34 1
41 33 35 2
42 36 37 1
43 37 38 1
@<TRIPOS>SUBSTRUCTURE
1	UNK0	1	GROUP	1 ****	UNK
