# created with PyMOL 2.5.0
@<TRIPOS>MOLECULE
data/FXA/cocry_dataset/1ioe_XMA_LIG.pdb
38 43 1                 
SMALL
USER_CHARGES
@<TRIPOS>ATOM
1	  N1	3.445	3.783	20.399	N.3	1	UNK0	0.000	
2	  C1	2.205	4.532	20.090	C.3	1	UNK0	0.000	
3	  C2	1.163	4.522	21.244	C.2	1	UNK0	0.000	
4	  O1	-0.029	4.283	21.070	O.2	1	UNK0	0.000	
5	  N2	1.663	4.822	22.509	N.pl3	1	UNK0	0.000	
6	  C3	2.869	4.107	22.879	C.3	1	UNK0	0.000	
7	  C4	3.311	3.109	21.731	C.3	1	UNK0	0.000	
8	  O2	3.855	5.148	23.173	O.3	1	UNK0	0.000	
9	  C5	3.331	6.483	22.886	C.3	1	UNK0	0.000	
10	  C6	1.816	6.227	22.825	C.3	1	UNK0	0.000	
11	  C7	3.701	7.492	23.980	C.3	1	UNK0	0.000	
12	  C8	5.194	7.844	24.033	C.3	1	UNK0	0.000	
13	  N3	5.770	8.317	22.758	N.pl3	1	UNK0	0.000	
14	  C9	5.233	7.747	21.524	C.3	1	UNK0	0.000	
15	 C10	3.804	7.197	21.593	C.3	1	UNK0	0.000	
16	 C11	7.184	8.537	22.800	C.2	1	UNK0	0.000	
17	 C12	7.927	8.691	23.983	C.2	1	UNK0	0.000	
18	 C13	9.299	8.962	23.935	C.2	1	UNK0	0.000	
19	  N4	10.010	9.052	22.800	N.2	1	UNK0	0.000	
20	 C14	9.314	8.848	21.666	C.2	1	UNK0	0.000	
21	 C15	7.943	8.590	21.623	C.2	1	UNK0	0.000	
22	  S1	5.076	4.076	20.104	S.o2	1	UNK0	0.000	
23	  O3	5.664	4.222	21.420	O.2	1	UNK0	0.000	
24	  O4	5.141	5.210	19.210	O.2	1	UNK0	0.000	
25	 C16	7.353	2.475	19.613	C.2	1	UNK0	0.000	
26	 C17	6.041	2.819	19.319	C.2	1	UNK0	0.000	
27	 C18	5.374	2.171	18.254	C.2	1	UNK0	0.000	
28	 C19	5.997	1.168	17.522	C.2	1	UNK0	0.000	
29	 C20	7.300	0.794	17.824	C.2	1	UNK0	0.000	
30	 C21	8.004	1.458	18.869	C.2	1	UNK0	0.000	
31	 C22	9.337	1.085	19.083	C.2	1	UNK0	0.000	
32	 C23	9.951	0.071	18.332	C.2	1	UNK0	0.000	
33	 C24	9.237	-0.587	17.335	C.2	1	UNK0	0.000	
34	 Cl1	9.982	-1.852	16.435	Cl	1	UNK0	0.000	
35	 C25	7.923	-0.224	17.076	C.2	1	UNK0	0.000	
36	 C26	2.651	3.074	24.059	C.3	1	UNK0	0.000	
37	  O5	1.329	2.836	24.529	O.3	1	UNK0	0.000	
38	 C27	0.745	1.677	23.971	C.3	1	UNK0	0.000	
@<TRIPOS>BOND
1 1 2 1
2 1 7 1
3 1 22 1
4 2 3 1
5 3 4 2
6 3 5 1
7 5 6 1
8 5 10 1
9 6 7 1
10 6 8 1
11 6 36 1
12 8 9 1
13 9 10 1
14 9 11 1
15 9 15 1
16 11 12 1
17 12 13 1
18 13 14 1
19 13 16 1
20 14 15 1
21 16 17 1
22 16 21 2
23 17 18 2
24 18 19 1
25 19 20 2
26 20 21 1
27 22 23 2
28 22 24 2
29 22 26 1
30 25 26 1
31 25 30 2
32 26 27 2
33 27 28 1
34 28 29 2
35 29 30 1
36 29 35 1
37 30 31 1
38 31 32 2
39 32 33 1
40 33 34 1
41 33 35 2
42 36 37 1
43 37 38 1
@<TRIPOS>SUBSTRUCTURE
1	UNK0	1	GROUP	1 ****	UNK
