# created with PyMOL 2.5.0
@<TRIPOS>MOLECULE
data/FXA/cocry_dataset/1iqe_XMB_LIG.pdb
75 79 1                 
SMALL
USER_CHARGES
@<TRIPOS>ATOM
1	 H34	9.897	1.510	19.831	 H	1	UNK0	0.000	
2	 H32	7.044	-0.622	16.358	 H	1	UNK0	0.000	
3	 H17	4.934	8.111	15.753	 H	1	UNK0	0.000	
4	 H33	10.811	-0.316	18.418	 H	1	UNK0	0.000	
5	 H01	3.578	7.702	20.373	 H	1	UNK0	0.000	
6	 H16	5.357	9.011	14.279	 H	1	UNK0	0.000	
7	 H04	1.611	8.715	23.650	 H	1	UNK0	0.000	
8	 H03	2.724	7.343	21.959	 H	1	UNK0	0.000	
9	 H02	2.915	6.619	23.587	 H	1	UNK0	0.000	
10	 H14	5.485	11.088	15.532	 H	1	UNK0	0.000	
11	 H08	6.451	7.402	23.826	 H	1	UNK0	0.000	
12	 H07	5.491	9.574	24.315	 H	1	UNK0	0.000	
13	 H18	8.370	8.765	17.178	 H	1	UNK0	0.000	
14	 H06	5.670	8.630	25.818	 H	1	UNK0	0.000	
15	 H13	4.968	11.287	17.866	 H	1	UNK0	0.000	
16	 H12	4.313	8.364	17.777	 H	1	UNK0	0.000	
17	 H27	3.956	5.991	19.170	 H	1	UNK0	0.000	
18	 H11	3.375	9.743	18.427	 H	1	UNK0	0.000	
19	 H10	4.563	9.776	20.272	 H	1	UNK0	0.000	
20	 H05	3.004	9.586	22.968	 H	1	UNK0	0.000	
21	 H15	3.891	10.312	15.832	 H	1	UNK0	0.000	
22	 H26	5.208	6.967	18.301	 H	1	UNK0	0.000	
23	 H21	7.299	10.920	17.375	 H	1	UNK0	0.000	
24	 H20	6.877	9.937	18.833	 H	1	UNK0	0.000	
25	 H19	6.858	7.917	17.569	 H	1	UNK0	0.000	
26	 H22	8.419	6.618	15.373	 H	1	UNK0	0.000	
27	 H25	7.583	10.476	13.669	 H	1	UNK0	0.000	
28	 H24	9.214	9.981	11.913	 H	1	UNK0	0.000	
29	 H23	10.008	6.228	13.555	 H	1	UNK0	0.000	
30	 H09	5.073	6.582	24.638	 H	1	UNK0	0.000	
31	 H30	5.190	0.855	16.964	 H	1	UNK0	0.000	
32	 H29	8.019	2.983	20.466	 H	1	UNK0	0.000	
33	 H28	6.479	5.346	18.896	 H	1	UNK0	0.000	
34	 H31	4.262	2.679	18.370	 H	1	UNK0	0.000	
35	  C1	4.656	7.738	20.212	C.3	1	UNK0	0.000	
36	  C2	5.365	7.569	21.591	C.2	1	UNK0	0.000	
37	  O1	6.604	7.552	21.608	O.2	1	UNK0	0.000	
38	  N1	4.645	7.461	22.782	N.pl3	1	UNK0	0.000	
39	  C3	3.188	7.452	22.939	C.3	1	UNK0	0.000	
40	  C4	2.699	8.736	23.578	C.3	1	UNK0	0.000	
41	  S1	3.398	8.888	25.199	S.o2	1	UNK0	0.000	
42	  O2	3.160	10.240	25.665	O.2	1	UNK0	0.000	
43	  O3	2.954	7.752	25.985	O.2	1	UNK0	0.000	
44	  C5	5.136	8.707	24.871	C.3	1	UNK0	0.000	
45	  C6	5.387	7.448	24.056	C.3	1	UNK0	0.000	
46	  N2	4.939	9.081	19.642	N.3	1	UNK0	0.000	
47	  C7	4.370	9.312	18.312	C.3	1	UNK0	0.000	
48	  C8	5.244	10.295	17.507	C.3	1	UNK0	0.000	
49	  C9	4.967	10.249	15.995	C.3	1	UNK0	0.000	
50	 C10	5.488	8.963	15.360	C.3	1	UNK0	0.000	
51	  N3	6.911	8.808	15.674	N.pl3	1	UNK0	0.000	
52	 C11	7.284	8.796	17.086	C.3	1	UNK0	0.000	
53	 C12	6.746	10.062	17.758	C.3	1	UNK0	0.000	
54	 C13	7.849	8.584	14.680	C.2	1	UNK0	0.000	
55	 C14	8.568	7.386	14.613	C.2	1	UNK0	0.000	
56	 C15	9.470	7.176	13.580	C.2	1	UNK0	0.000	
57	  N4	9.720	8.073	12.607	N.2	1	UNK0	0.000	
58	 C16	9.033	9.229	12.680	C.2	1	UNK0	0.000	
59	 C17	8.107	9.520	13.674	C.2	1	UNK0	0.000	
60	 C18	4.886	6.551	19.256	C.3	1	UNK0	0.000	
61	  N5	5.947	5.630	19.707	N.3	1	UNK0	0.000	
62	  S2	5.409	4.226	20.500	S.o2	1	UNK0	0.000	
63	  O4	6.046	4.170	21.796	O.2	1	UNK0	0.000	
64	  O5	3.973	4.195	20.344	O.2	1	UNK0	0.000	
65	 C19	6.095	2.947	19.481	C.2	1	UNK0	0.000	
66	 C20	7.411	2.519	19.689	C.2	1	UNK0	0.000	
67	 C21	7.947	1.493	18.897	C.2	1	UNK0	0.000	
68	 C22	7.136	0.887	17.903	C.2	1	UNK0	0.000	
69	 C23	5.814	1.323	17.725	C.2	1	UNK0	0.000	
70	 C24	5.291	2.348	18.512	C.2	1	UNK0	0.000	
71	 C25	7.664	-0.149	17.120	C.2	1	UNK0	0.000	
72	 C26	8.976	-0.577	17.311	C.2	1	UNK0	0.000	
73	 C27	9.783	0.019	18.279	C.2	1	UNK0	0.000	
74	 C28	9.267	1.048	19.070	C.2	1	UNK0	0.000	
75	 Cl1	9.606	-1.846	16.336	Cl	1	UNK0	0.000	
@<TRIPOS>BOND
1 5 35 1
2 35 36 1
3 35 46 1
4 35 60 1
5 36 37 2
6 36 38 1
7 38 39 1
8 38 45 1
9 8 39 1
10 9 39 1
11 39 40 1
12 7 40 1
13 20 40 1
14 40 41 1
15 41 42 2
16 41 43 2
17 41 44 1
18 12 44 1
19 14 44 1
20 44 45 1
21 11 45 1
22 30 45 1
23 19 46 1
24 46 47 1
25 16 47 1
26 18 47 1
27 47 48 1
28 15 48 1
29 48 49 1
30 48 53 1
31 10 49 1
32 21 49 1
33 49 50 1
34 3 50 1
35 6 50 1
36 50 51 1
37 51 52 1
38 51 54 1
39 13 52 1
40 25 52 1
41 52 53 1
42 23 53 1
43 24 53 1
44 54 55 1
45 54 59 2
46 26 55 1
47 55 56 2
48 29 56 1
49 56 57 1
50 57 58 2
51 28 58 1
52 58 59 1
53 27 59 1
54 17 60 1
55 22 60 1
56 60 61 1
57 33 61 1
58 61 62 1
59 62 63 2
60 62 64 2
61 62 65 1
62 65 66 1
63 65 70 2
64 32 66 1
65 66 67 2
66 67 68 1
67 67 74 1
68 68 69 2
69 68 71 1
70 31 69 1
71 69 70 1
72 34 70 1
73 2 71 1
74 71 72 2
75 72 73 1
76 72 75 1
77 4 73 1
78 73 74 2
79 1 74 1
@<TRIPOS>SUBSTRUCTURE
1	UNK0	1	GROUP	1 ****	UNK
