# created with PyMOL 2.5.0
@<TRIPOS>MOLECULE
data/FXA/cocry_dataset/1iqe_XMB_LIG.pdb
41 45 1                 
SMALL
USER_CHARGES
@<TRIPOS>ATOM
1	  C1	4.656	7.738	20.212	C.3	1	UNK0	0.000	
2	  C2	5.365	7.569	21.591	C.2	1	UNK0	0.000	
3	  O1	6.604	7.552	21.608	O.2	1	UNK0	0.000	
4	  N1	4.645	7.461	22.782	N.pl3	1	UNK0	0.000	
5	  C3	3.188	7.452	22.939	C.3	1	UNK0	0.000	
6	  C4	2.699	8.736	23.578	C.3	1	UNK0	0.000	
7	  S1	3.398	8.888	25.199	S.o2	1	UNK0	0.000	
8	  O2	3.160	10.240	25.665	O.2	1	UNK0	0.000	
9	  O3	2.954	7.752	25.985	O.2	1	UNK0	0.000	
10	  C5	5.136	8.707	24.871	C.3	1	UNK0	0.000	
11	  C6	5.387	7.448	24.056	C.3	1	UNK0	0.000	
12	  N2	4.939	9.081	19.642	N.3	1	UNK0	0.000	
13	  C7	4.370	9.312	18.312	C.3	1	UNK0	0.000	
14	  C8	5.244	10.295	17.507	C.3	1	UNK0	0.000	
15	  C9	4.967	10.249	15.995	C.3	1	UNK0	0.000	
16	 C10	5.488	8.963	15.360	C.3	1	UNK0	0.000	
17	  N3	6.911	8.808	15.674	N.pl3	1	UNK0	0.000	
18	 C11	7.284	8.796	17.086	C.3	1	UNK0	0.000	
19	 C12	6.746	10.062	17.758	C.3	1	UNK0	0.000	
20	 C13	7.849	8.584	14.680	C.2	1	UNK0	0.000	
21	 C14	8.568	7.386	14.613	C.2	1	UNK0	0.000	
22	 C15	9.470	7.176	13.580	C.2	1	UNK0	0.000	
23	  N4	9.720	8.073	12.607	N.2	1	UNK0	0.000	
24	 C16	9.033	9.229	12.680	C.2	1	UNK0	0.000	
25	 C17	8.107	9.520	13.674	C.2	1	UNK0	0.000	
26	 C18	4.886	6.551	19.256	C.3	1	UNK0	0.000	
27	  N5	5.947	5.630	19.707	N.3	1	UNK0	0.000	
28	  S2	5.409	4.226	20.500	S.o2	1	UNK0	0.000	
29	  O4	6.046	4.170	21.796	O.2	1	UNK0	0.000	
30	  O5	3.973	4.195	20.344	O.2	1	UNK0	0.000	
31	 C19	6.095	2.947	19.481	C.2	1	UNK0	0.000	
32	 C20	7.411	2.519	19.689	C.2	1	UNK0	0.000	
33	 C21	7.947	1.493	18.897	C.2	1	UNK0	0.000	
34	 C22	7.136	0.887	17.903	C.2	1	UNK0	0.000	
35	 C23	5.814	1.323	17.725	C.2	1	UNK0	0.000	
36	 C24	5.291	2.348	18.512	C.2	1	UNK0	0.000	
37	 C25	7.664	-0.149	17.120	C.2	1	UNK0	0.000	
38	 C26	8.976	-0.577	17.311	C.2	1	UNK0	0.000	
39	 C27	9.783	0.019	18.279	C.2	1	UNK0	0.000	
40	 C28	9.267	1.048	19.070	C.2	1	UNK0	0.000	
41	 Cl1	9.606	-1.846	16.336	Cl	1	UNK0	0.000	
@<TRIPOS>BOND
1 1 2 1
2 1 12 1
3 1 26 1
4 2 3 2
5 2 4 1
6 4 5 1
7 4 11 1
8 5 6 1
9 6 7 1
10 7 8 2
11 7 9 2
12 7 10 1
13 10 11 1
14 12 13 1
15 13 14 1
16 14 15 1
17 14 19 1
18 15 16 1
19 16 17 1
20 17 18 1
21 17 20 1
22 18 19 1
23 20 21 1
24 20 25 2
25 21 22 2
26 22 23 1
27 23 24 2
28 24 25 1
29 26 27 1
30 27 28 1
31 28 29 2
32 28 30 2
33 28 31 1
34 31 32 1
35 31 36 2
36 32 33 2
37 33 34 1
38 33 40 1
39 34 35 2
40 34 37 1
41 35 36 1
42 37 38 2
43 38 39 1
44 38 41 1
45 39 40 2
@<TRIPOS>SUBSTRUCTURE
1	UNK0	1	GROUP	1 ****	UNK
