# created with PyMOL 2.5.0
@<TRIPOS>MOLECULE
data/FXA/cocry_dataset/1iqe_XMB_LIG.pdb
41 45 1                 
SMALL
USER_CHARGES
@<TRIPOS>ATOM
1	  C1	4.308	6.128	21.933	C.3	1	UNK0	0.000	
2	  C2	4.460	7.172	20.784	C.2	1	UNK0	0.000	
3	  O1	3.470	7.854	20.485	O.2	1	UNK0	0.000	
4	  N1	5.672	7.363	20.117	N.pl3	1	UNK0	0.000	
5	  C3	6.928	6.640	20.337	C.3	1	UNK0	0.000	
6	  C4	7.959	7.527	21.003	C.3	1	UNK0	0.000	
7	  S1	8.325	8.900	19.945	S.o2	1	UNK0	0.000	
8	  O2	9.075	9.873	20.715	O.2	1	UNK0	0.000	
9	  O3	8.861	8.375	18.702	O.2	1	UNK0	0.000	
10	  C5	6.707	9.564	19.628	C.3	1	UNK0	0.000	
11	  C6	5.775	8.465	19.144	C.3	1	UNK0	0.000	
12	  N2	5.243	4.990	21.729	N.3	1	UNK0	0.000	
13	  C7	4.648	3.821	21.076	C.3	1	UNK0	0.000	
14	  C8	5.384	2.530	21.489	C.3	1	UNK0	0.000	
15	  C9	6.914	2.681	21.482	C.3	1	UNK0	0.000	
16	 C10	7.470	2.776	20.063	C.3	1	UNK0	0.000	
17	  N3	7.018	1.619	19.286	N.pl3	1	UNK0	0.000	
18	 C11	5.576	1.404	19.191	C.3	1	UNK0	0.000	
19	 C12	4.984	1.336	20.601	C.3	1	UNK0	0.000	
20	 C13	7.912	0.823	18.590	C.2	1	UNK0	0.000	
21	 C14	7.505	0.057	17.494	C.2	1	UNK0	0.000	
22	 C15	8.435	-0.698	16.792	C.2	1	UNK0	0.000	
23	  N4	9.744	-0.755	17.104	N.2	1	UNK0	0.000	
24	 C16	10.130	-0.023	18.166	C.2	1	UNK0	0.000	
25	 C17	9.270	0.765	18.920	C.2	1	UNK0	0.000	
26	 C18	4.327	6.757	23.339	C.3	1	UNK0	0.000	
27	  N5	5.688	7.015	23.849	N.3	1	UNK0	0.000	
28	  S2	6.062	8.647	24.145	S.o2	1	UNK0	0.000	
29	  O4	5.962	9.365	22.896	O.2	1	UNK0	0.000	
30	  O5	5.308	9.030	25.318	O.2	1	UNK0	0.000	
31	 C19	7.772	8.551	24.603	C.2	1	UNK0	0.000	
32	 C20	8.166	7.725	25.661	C.2	1	UNK0	0.000	
33	 C21	9.522	7.634	26.010	C.2	1	UNK0	0.000	
34	 C22	10.481	8.369	25.269	C.2	1	UNK0	0.000	
35	 C23	10.062	9.179	24.201	C.2	1	UNK0	0.000	
36	 C24	8.712	9.270	23.865	C.2	1	UNK0	0.000	
37	 C25	11.838	8.269	25.605	C.2	1	UNK0	0.000	
38	 C26	12.243	7.457	26.663	C.2	1	UNK0	0.000	
39	 C27	11.306	6.737	27.403	C.2	1	UNK0	0.000	
40	 C28	9.951	6.824	27.074	C.2	1	UNK0	0.000	
41	 Cl1	13.912	7.351	27.063	Cl	1	UNK0	0.000	
@<TRIPOS>BOND
1 1 2 1
2 1 12 1
3 1 26 1
4 2 3 2
5 2 4 1
6 4 5 1
7 4 11 1
8 5 6 1
9 6 7 1
10 7 8 2
11 7 9 2
12 7 10 1
13 10 11 1
14 12 13 1
15 13 14 1
16 14 15 1
17 14 19 1
18 15 16 1
19 16 17 1
20 17 18 1
21 17 20 1
22 18 19 1
23 20 21 1
24 20 25 2
25 21 22 2
26 22 23 1
27 23 24 2
28 24 25 1
29 26 27 1
30 27 28 1
31 28 29 2
32 28 30 2
33 28 31 1
34 31 32 1
35 31 36 2
36 32 33 2
37 33 34 1
38 33 40 1
39 34 35 2
40 34 37 1
41 35 36 1
42 37 38 2
43 38 39 1
44 38 41 1
45 39 40 2
@<TRIPOS>SUBSTRUCTURE
1	UNK0	1	GROUP	1 ****	UNK
