# created with PyMOL 2.5.0
@<TRIPOS>MOLECULE
data/FXA/cocry_dataset/1iqe_XMB_LIG.pdb
41 45 1                 
SMALL
USER_CHARGES
@<TRIPOS>ATOM
1	  C1	4.841	6.719	19.917	C.3	1	UNK0	0.000	
2	  C2	6.262	7.131	20.412	C.2	1	UNK0	0.000	
3	  O1	7.041	7.631	19.588	O.2	1	UNK0	0.000	
4	  N1	6.655	6.969	21.742	N.pl3	1	UNK0	0.000	
5	  C3	5.870	6.389	22.834	C.3	1	UNK0	0.000	
6	  C4	5.440	7.452	23.823	C.3	1	UNK0	0.000	
7	  S1	6.877	8.192	24.550	S.o2	1	UNK0	0.000	
8	  O2	6.458	9.387	25.256	O.2	1	UNK0	0.000	
9	  O3	7.614	7.151	25.241	O.2	1	UNK0	0.000	
10	  C5	7.804	8.686	23.116	C.3	1	UNK0	0.000	
11	  C6	7.960	7.512	22.162	C.3	1	UNK0	0.000	
12	  N2	4.341	7.687	18.906	N.3	1	UNK0	0.000	
13	  C7	3.880	7.080	17.655	C.3	1	UNK0	0.000	
14	  C8	4.005	8.076	16.484	C.3	1	UNK0	0.000	
15	  C9	4.186	7.386	15.123	C.3	1	UNK0	0.000	
16	 C10	5.568	6.753	14.985	C.3	1	UNK0	0.000	
17	  N3	6.595	7.767	15.240	N.pl3	1	UNK0	0.000	
18	 C11	6.542	8.457	16.526	C.3	1	UNK0	0.000	
19	 C12	5.154	9.078	16.707	C.3	1	UNK0	0.000	
20	 C13	7.627	7.989	14.345	C.2	1	UNK0	0.000	
21	 C14	7.675	9.147	13.562	C.2	1	UNK0	0.000	
22	 C15	8.746	9.359	12.704	C.2	1	UNK0	0.000	
23	  N4	9.773	8.500	12.558	N.2	1	UNK0	0.000	
24	 C16	9.717	7.382	13.307	C.2	1	UNK0	0.000	
25	 C17	8.689	7.093	14.195	C.2	1	UNK0	0.000	
26	 C18	4.739	5.234	19.519	C.3	1	UNK0	0.000	
27	  N5	6.042	4.616	19.209	N.3	1	UNK0	0.000	
28	  S2	6.577	3.440	20.315	S.o2	1	UNK0	0.000	
29	  O4	7.739	3.961	20.997	O.2	1	UNK0	0.000	
30	  O5	5.403	2.987	21.026	O.2	1	UNK0	0.000	
31	 C19	7.097	2.134	19.234	C.2	1	UNK0	0.000	
32	 C20	8.413	1.665	19.290	C.2	1	UNK0	0.000	
33	 C21	8.819	0.617	18.449	C.2	1	UNK0	0.000	
34	 C22	7.879	0.034	17.563	C.2	1	UNK0	0.000	
35	 C23	6.560	0.513	17.537	C.2	1	UNK0	0.000	
36	 C24	6.165	1.558	18.370	C.2	1	UNK0	0.000	
37	 C25	8.277	-1.023	16.732	C.2	1	UNK0	0.000	
38	 C26	9.588	-1.493	16.772	C.2	1	UNK0	0.000	
39	 C27	10.521	-0.920	17.634	C.2	1	UNK0	0.000	
40	 C28	10.136	0.130	18.471	C.2	1	UNK0	0.000	
41	 Cl1	10.058	-2.787	15.741	Cl	1	UNK0	0.000	
@<TRIPOS>BOND
1 1 2 1
2 1 12 1
3 1 26 1
4 2 3 2
5 2 4 1
6 4 5 1
7 4 11 1
8 5 6 1
9 6 7 1
10 7 8 2
11 7 9 2
12 7 10 1
13 10 11 1
14 12 13 1
15 13 14 1
16 14 15 1
17 14 19 1
18 15 16 1
19 16 17 1
20 17 18 1
21 17 20 1
22 18 19 1
23 20 21 1
24 20 25 2
25 21 22 2
26 22 23 1
27 23 24 2
28 24 25 1
29 26 27 1
30 27 28 1
31 28 29 2
32 28 30 2
33 28 31 1
34 31 32 1
35 31 36 2
36 32 33 2
37 33 34 1
38 33 40 1
39 34 35 2
40 34 37 1
41 35 36 1
42 37 38 2
43 38 39 1
44 38 41 1
45 39 40 2
@<TRIPOS>SUBSTRUCTURE
1	UNK0	1	GROUP	1 ****	UNK
