# created with PyMOL 2.5.0
@<TRIPOS>MOLECULE
data/FXA/cocry_dataset/1iqf_XMD_LIG.pdb
39 43 1                 
SMALL
USER_CHARGES
@<TRIPOS>ATOM
1	  N1	3.986	4.055	19.814	N.3	1	UNK0	0.000	
2	  C1	2.942	4.113	20.858	C.3	1	UNK0	0.000	
3	  C2	3.282	5.274	21.818	C.3	1	UNK0	0.000	
4	  N2	3.181	6.607	21.149	N.pl3	1	UNK0	0.000	
5	  C3	3.617	6.633	19.769	C.2	1	UNK0	0.000	
6	  O1	3.852	7.694	19.171	O.2	1	UNK0	0.000	
7	  C4	3.730	5.301	18.990	C.3	1	UNK0	0.000	
8	  S1	5.672	3.818	20.274	S.o2	1	UNK0	0.000	
9	  O2	5.771	3.730	21.712	O.2	1	UNK0	0.000	
10	  O3	6.392	4.889	19.601	O.2	1	UNK0	0.000	
11	  C5	7.751	1.961	19.635	C.2	1	UNK0	0.000	
12	  C6	6.361	2.259	19.601	C.2	1	UNK0	0.000	
13	  C7	5.572	1.520	18.705	C.2	1	UNK0	0.000	
14	  C8	6.134	0.534	17.886	C.2	1	UNK0	0.000	
15	  C9	7.510	0.231	17.913	C.2	1	UNK0	0.000	
16	 C10	8.344	0.936	18.804	C.2	1	UNK0	0.000	
17	 C11	9.731	0.610	18.783	C.2	1	UNK0	0.000	
18	 C12	10.263	-0.361	17.906	C.2	1	UNK0	0.000	
19	 C13	9.416	-1.028	17.027	C.2	1	UNK0	0.000	
20	 Cl1	10.055	-2.192	15.926	Cl	1	UNK0	0.000	
21	 C14	8.052	-0.742	17.034	C.2	1	UNK0	0.000	
22	 C15	3.025	4.593	23.156	C.2	1	UNK0	0.000	
23	  O4	3.994	4.099	23.742	O.co2	1	UNK0	0.000	
24	  O5	1.759	4.381	23.549	O.3	1	UNK0	0.000	
25	 C16	1.078	5.632	23.822	C.3	1	UNK0	0.000	
26	 C17	1.346	6.037	25.264	C.3	1	UNK0	0.000	
27	 C18	3.799	7.728	21.902	C.3	1	UNK0	0.000	
28	 C19	5.144	7.462	22.564	C.2	1	UNK0	0.000	
29	 C20	6.308	7.302	21.913	C.2	1	UNK0	0.000	
30	 C21	7.605	6.970	22.615	C.3	1	UNK0	0.000	
31	  N3	7.561	7.390	24.034	N.pl3	1	UNK0	0.000	
32	 C22	6.339	7.346	24.683	C.2	1	UNK0	0.000	
33	 C23	5.163	7.343	24.027	C.2	1	UNK0	0.000	
34	 C24	8.744	7.918	24.604	C.2	1	UNK0	0.000	
35	 C25	9.515	8.872	23.925	C.2	1	UNK0	0.000	
36	 C26	10.718	9.301	24.468	C.2	1	UNK0	0.000	
37	  N4	11.211	8.865	25.643	N.2	1	UNK0	0.000	
38	 C27	10.453	7.971	26.307	C.2	1	UNK0	0.000	
39	 C28	9.236	7.488	25.843	C.2	1	UNK0	0.000	
@<TRIPOS>BOND
1 1 2 1
2 1 7 1
3 1 8 1
4 2 3 1
5 3 4 1
6 3 22 1
7 4 5 1
8 4 27 1
9 5 6 2
10 5 7 1
11 8 9 2
12 8 10 2
13 8 12 1
14 11 12 1
15 11 16 2
16 12 13 2
17 13 14 1
18 14 15 2
19 15 16 1
20 15 21 1
21 16 17 1
22 17 18 2
23 18 19 1
24 19 20 1
25 19 21 2
26 22 23 2
27 22 24 1
28 24 25 1
29 25 26 1
30 27 28 1
31 28 29 2
32 28 33 1
33 29 30 1
34 30 31 1
35 31 32 1
36 31 34 1
37 32 33 2
38 34 35 1
39 34 39 2
40 35 36 2
41 36 37 1
42 37 38 2
43 38 39 1
@<TRIPOS>SUBSTRUCTURE
1	UNK0	1	GROUP	1 ****	UNK
