# created with PyMOL 2.5.0
@<TRIPOS>MOLECULE
data/FXA/cocry_dataset/1iqf_XMD_LIG.pdb
39 43 1                 
SMALL
USER_CHARGES
@<TRIPOS>ATOM
1	  N1	1.868	2.263	19.414	N.3	1	UNK0	0.000	
2	  C1	2.362	3.652	19.514	C.3	1	UNK0	0.000	
3	  C2	3.728	3.732	18.797	C.3	1	UNK0	0.000	
4	  N2	3.604	3.512	17.324	N.pl3	1	UNK0	0.000	
5	  C3	2.618	2.527	16.933	C.2	1	UNK0	0.000	
6	  O1	2.589	2.039	15.793	O.2	1	UNK0	0.000	
7	  C4	1.522	2.118	17.944	C.3	1	UNK0	0.000	
8	  S1	2.832	0.941	20.070	S.o2	1	UNK0	0.000	
9	  O2	2.402	-0.307	19.483	O.2	1	UNK0	0.000	
10	  O3	2.730	1.090	21.514	O.2	1	UNK0	0.000	
11	  C5	5.184	0.629	18.473	C.2	1	UNK0	0.000	
12	  C6	4.613	1.123	19.678	C.2	1	UNK0	0.000	
13	  C7	5.496	1.409	20.732	C.2	1	UNK0	0.000	
14	  C8	6.875	1.217	20.596	C.2	1	UNK0	0.000	
15	  C9	7.451	0.729	19.405	C.2	1	UNK0	0.000	
16	 C10	6.609	0.438	18.312	C.2	1	UNK0	0.000	
17	 C11	7.233	-0.072	17.136	C.2	1	UNK0	0.000	
18	 C12	8.625	-0.294	17.059	C.2	1	UNK0	0.000	
19	 C13	9.427	-0.011	18.160	C.2	1	UNK0	0.000	
20	 Cl1	11.125	-0.308	18.092	Cl	1	UNK0	0.000	
21	 C14	8.849	0.502	19.319	C.2	1	UNK0	0.000	
22	 C15	4.512	4.551	19.815	C.2	1	UNK0	0.000	
23	  O4	3.920	4.906	20.840	O.co2	1	UNK0	0.000	
24	  O5	5.726	5.018	19.484	O.3	1	UNK0	0.000	
25	 C16	6.438	5.500	20.651	C.3	1	UNK0	0.000	
26	 C17	7.610	4.572	20.935	C.3	1	UNK0	0.000	
27	 C18	4.890	3.254	16.625	C.3	1	UNK0	0.000	
28	 C19	5.320	4.260	15.568	C.2	1	UNK0	0.000	
29	 C20	5.076	5.581	15.611	C.2	1	UNK0	0.000	
30	 C21	5.465	6.527	14.499	C.3	1	UNK0	0.000	
31	  N3	6.577	5.970	13.695	N.pl3	1	UNK0	0.000	
32	 C22	6.643	4.595	13.550	C.2	1	UNK0	0.000	
33	 C23	6.033	3.741	14.394	C.2	1	UNK0	0.000	
34	 C24	7.564	6.867	13.222	C.2	1	UNK0	0.000	
35	 C25	8.897	6.772	13.649	C.2	1	UNK0	0.000	
36	 C26	9.822	7.722	13.239	C.2	1	UNK0	0.000	
37	  N4	9.530	8.755	12.426	N.2	1	UNK0	0.000	
38	 C27	8.256	8.826	11.994	C.2	1	UNK0	0.000	
39	 C28	7.265	7.920	12.348	C.2	1	UNK0	0.000	
@<TRIPOS>BOND
1 1 2 1
2 1 7 1
3 1 8 1
4 2 3 1
5 3 4 1
6 3 22 1
7 4 5 1
8 4 27 1
9 5 6 2
10 5 7 1
11 8 9 2
12 8 10 2
13 8 12 1
14 11 12 1
15 11 16 2
16 12 13 2
17 13 14 1
18 14 15 2
19 15 16 1
20 15 21 1
21 16 17 1
22 17 18 2
23 18 19 1
24 19 20 1
25 19 21 2
26 22 23 2
27 22 24 1
28 24 25 1
29 25 26 1
30 27 28 1
31 28 29 2
32 28 33 1
33 29 30 1
34 30 31 1
35 31 32 1
36 31 34 1
37 32 33 2
38 34 35 1
39 34 39 2
40 35 36 2
41 36 37 1
42 37 38 2
43 38 39 1
@<TRIPOS>SUBSTRUCTURE
1	UNK0	1	GROUP	1 ****	UNK
