# created with PyMOL 2.5.0
@<TRIPOS>MOLECULE
data/FXA/cocry_dataset/1iqf_XMD_LIG.pdb
39 43 1                 
SMALL
USER_CHARGES
@<TRIPOS>ATOM
1	  N1	2.414	3.299	19.277	N.3	1	UNK0	0.000	
2	  C1	2.294	4.179	20.458	C.3	1	UNK0	0.000	
3	  C2	3.694	4.334	21.091	C.3	1	UNK0	0.000	
4	  N2	4.638	5.074	20.198	N.pl3	1	UNK0	0.000	
5	  C3	4.489	4.796	18.785	C.2	1	UNK0	0.000	
6	  O1	5.356	5.110	17.956	O.2	1	UNK0	0.000	
7	  C4	3.178	4.149	18.281	C.3	1	UNK0	0.000	
8	  S1	3.038	1.661	19.467	S.o2	1	UNK0	0.000	
9	  O2	2.486	0.812	18.437	O.2	1	UNK0	0.000	
10	  O3	2.764	1.319	20.855	O.2	1	UNK0	0.000	
11	  C5	5.495	1.175	18.087	C.2	1	UNK0	0.000	
12	  C6	4.861	1.589	19.290	C.2	1	UNK0	0.000	
13	  C7	5.638	1.574	20.459	C.2	1	UNK0	0.000	
14	  C8	6.977	1.171	20.434	C.2	1	UNK0	0.000	
15	  C9	7.616	0.760	19.247	C.2	1	UNK0	0.000	
16	 C10	6.883	0.768	18.043	C.2	1	UNK0	0.000	
17	 C11	7.563	0.326	16.871	C.2	1	UNK0	0.000	
18	 C12	8.903	-0.117	16.901	C.2	1	UNK0	0.000	
19	 C13	9.595	-0.128	18.108	C.2	1	UNK0	0.000	
20	 Cl1	11.223	-0.698	18.167	Cl	1	UNK0	0.000	
21	 C14	8.963	0.313	19.269	C.2	1	UNK0	0.000	
22	 C15	3.339	4.160	22.562	C.2	1	UNK0	0.000	
23	  O4	4.217	3.724	23.314	O.co2	1	UNK0	0.000	
24	  O5	2.059	4.291	22.946	O.3	1	UNK0	0.000	
25	 C16	1.787	3.510	24.136	C.3	1	UNK0	0.000	
26	 C17	0.972	2.285	23.749	C.3	1	UNK0	0.000	
27	 C18	6.067	4.978	20.590	C.3	1	UNK0	0.000	
28	 C19	6.606	6.057	21.520	C.2	1	UNK0	0.000	
29	 C20	6.167	6.295	22.767	C.2	1	UNK0	0.000	
30	 C21	6.690	7.425	23.622	C.3	1	UNK0	0.000	
31	  N3	8.043	7.837	23.185	N.pl3	1	UNK0	0.000	
32	 C22	8.348	7.729	21.839	C.2	1	UNK0	0.000	
33	 C23	7.671	6.923	20.999	C.2	1	UNK0	0.000	
34	 C24	8.976	8.205	24.184	C.2	1	UNK0	0.000	
35	 C25	9.973	9.158	23.930	C.2	1	UNK0	0.000	
36	 C26	10.930	9.431	24.899	C.2	1	UNK0	0.000	
37	  N4	10.967	8.838	26.108	N.2	1	UNK0	0.000	
38	 C27	9.990	7.946	26.359	C.2	1	UNK0	0.000	
39	 C28	8.991	7.613	25.453	C.2	1	UNK0	0.000	
@<TRIPOS>BOND
1 1 2 1
2 1 7 1
3 1 8 1
4 2 3 1
5 3 4 1
6 3 22 1
7 4 5 1
8 4 27 1
9 5 6 2
10 5 7 1
11 8 9 2
12 8 10 2
13 8 12 1
14 11 12 1
15 11 16 2
16 12 13 2
17 13 14 1
18 14 15 2
19 15 16 1
20 15 21 1
21 16 17 1
22 17 18 2
23 18 19 1
24 19 20 1
25 19 21 2
26 22 23 2
27 22 24 1
28 24 25 1
29 25 26 1
30 27 28 1
31 28 29 2
32 28 33 1
33 29 30 1
34 30 31 1
35 31 32 1
36 31 34 1
37 32 33 2
38 34 35 1
39 34 39 2
40 35 36 2
41 36 37 1
42 37 38 2
43 38 39 1
@<TRIPOS>SUBSTRUCTURE
1	UNK0	1	GROUP	1 ****	UNK
