# created with PyMOL 2.5.0
@<TRIPOS>MOLECULE
data/FXA/cocry_dataset/1iqf_XMD_LIG.pdb
66 70 1                 
SMALL
USER_CHARGES
@<TRIPOS>ATOM
1	  N1	3.986	4.055	19.814	N.3	1	UNK0	0.000	
2	  C1	2.942	4.113	20.858	C.3	1	UNK0	0.000	
3	  C2	3.282	5.274	21.818	C.3	1	UNK0	0.000	
4	  N2	3.181	6.607	21.149	N.pl3	1	UNK0	0.000	
5	  C3	3.617	6.633	19.769	C.2	1	UNK0	0.000	
6	  O1	3.852	7.694	19.171	O.2	1	UNK0	0.000	
7	  C4	3.730	5.301	18.990	C.3	1	UNK0	0.000	
8	  S1	5.672	3.818	20.274	S.o2	1	UNK0	0.000	
9	  O2	5.771	3.730	21.712	O.2	1	UNK0	0.000	
10	  O3	6.392	4.889	19.601	O.2	1	UNK0	0.000	
11	  C5	7.751	1.961	19.635	C.2	1	UNK0	0.000	
12	  C6	6.361	2.259	19.601	C.2	1	UNK0	0.000	
13	  C7	5.572	1.520	18.705	C.2	1	UNK0	0.000	
14	  C8	6.134	0.534	17.886	C.2	1	UNK0	0.000	
15	  C9	7.510	0.231	17.913	C.2	1	UNK0	0.000	
16	 C10	8.344	0.936	18.804	C.2	1	UNK0	0.000	
17	 C11	9.731	0.610	18.783	C.2	1	UNK0	0.000	
18	 C12	10.263	-0.361	17.906	C.2	1	UNK0	0.000	
19	 C13	9.416	-1.028	17.027	C.2	1	UNK0	0.000	
20	 Cl1	10.055	-2.192	15.926	Cl	1	UNK0	0.000	
21	 C14	8.052	-0.742	17.034	C.2	1	UNK0	0.000	
22	 C15	3.025	4.593	23.156	C.2	1	UNK0	0.000	
23	  O4	3.994	4.099	23.742	O.co2	1	UNK0	0.000	
24	  O5	1.759	4.381	23.549	O.3	1	UNK0	0.000	
25	 C16	1.078	5.632	23.822	C.3	1	UNK0	0.000	
26	 C17	1.346	6.037	25.264	C.3	1	UNK0	0.000	
27	 C18	3.799	7.728	21.902	C.3	1	UNK0	0.000	
28	 C19	5.144	7.462	22.564	C.2	1	UNK0	0.000	
29	 C20	6.308	7.302	21.913	C.2	1	UNK0	0.000	
30	 C21	7.605	6.970	22.615	C.3	1	UNK0	0.000	
31	  N3	7.561	7.390	24.034	N.pl3	1	UNK0	0.000	
32	 C22	6.339	7.346	24.683	C.2	1	UNK0	0.000	
33	 C23	5.163	7.343	24.027	C.2	1	UNK0	0.000	
34	 C24	8.744	7.918	24.604	C.2	1	UNK0	0.000	
35	 C25	9.515	8.872	23.925	C.2	1	UNK0	0.000	
36	 C26	10.718	9.301	24.468	C.2	1	UNK0	0.000	
37	  N4	11.211	8.865	25.643	N.2	1	UNK0	0.000	
38	 C27	10.453	7.971	26.307	C.2	1	UNK0	0.000	
39	 C28	9.236	7.488	25.843	C.2	1	UNK0	0.000	
40	 H01	2.906	3.171	21.406	 H	1	UNK0	0.000	
41	 H02	1.969	4.286	20.399	 H	1	UNK0	0.000	
42	 H03	4.137	5.848	22.176	 H	1	UNK0	0.000	
43	 H04	2.750	5.150	18.536	 H	1	UNK0	0.000	
44	 H05	4.548	5.402	18.277	 H	1	UNK0	0.000	
45	 H06	8.392	2.526	20.312	 H	1	UNK0	0.000	
46	 H07	4.502	1.717	18.647	 H	1	UNK0	0.000	
47	 H08	5.485	-0.017	17.205	 H	1	UNK0	0.000	
48	 H09	10.405	1.128	19.467	 H	1	UNK0	0.000	
49	 H10	11.330	-0.585	17.917	 H	1	UNK0	0.000	
50	 H11	7.390	-1.277	16.353	 H	1	UNK0	0.000	
51	 H12	0.006	5.509	23.668	 H	1	UNK0	0.000	
52	 H13	1.449	6.405	23.149	 H	1	UNK0	0.000	
53	 H14	2.117	6.808	25.287	 H	1	UNK0	0.000	
54	 H15	0.430	6.427	25.708	 H	1	UNK0	0.000	
55	 H16	1.684	5.169	25.829	 H	1	UNK0	0.000	
56	 H17	3.114	7.924	22.727	 H	1	UNK0	0.000	
57	 H18	3.933	8.557	21.207	 H	1	UNK0	0.000	
58	 H19	6.319	7.416	20.829	 H	1	UNK0	0.000	
59	 H20	8.415	7.504	22.120	 H	1	UNK0	0.000	
60	 H21	7.773	5.894	22.567	 H	1	UNK0	0.000	
61	 H22	6.328	7.313	25.773	 H	1	UNK0	0.000	
62	 H23	4.228	7.252	24.580	 H	1	UNK0	0.000	
63	 H24	9.170	9.276	22.973	 H	1	UNK0	0.000	
64	 H25	11.299	10.036	23.910	 H	1	UNK0	0.000	
65	 H26	10.817	7.605	27.266	 H	1	UNK0	0.000	
66	 H27	8.667	6.777	26.441	 H	1	UNK0	0.000	
@<TRIPOS>BOND
1 11 12 1
2 11 16 2
3 12 13 2
4 8 12 1
5 13 14 1
6 14 15 2
7 15 16 1
8 15 21 1
9 16 17 1
10 17 18 2
11 18 19 1
12 19 20 1
13 19 21 2
14 8 9 2
15 8 10 2
16 1 8 1
17 1 2 1
18 1 7 1
19 2 3 1
20 3 4 1
21 3 22 1
22 22 23 2
23 22 24 1
24 24 25 1
25 25 26 1
26 4 5 1
27 4 27 1
28 5 6 2
29 5 7 1
30 27 28 1
31 28 29 2
32 28 33 1
33 29 30 1
34 30 31 1
35 31 34 1
36 31 32 1
37 34 35 1
38 34 39 2
39 35 36 2
40 36 37 1
41 37 38 2
42 38 39 1
43 32 33 2
44 2 40 1
45 2 41 1
46 3 42 1
47 7 43 1
48 7 44 1
49 11 45 1
50 13 46 1
51 14 47 1
52 17 48 1
53 18 49 1
54 21 50 1
55 25 51 1
56 25 52 1
57 26 53 1
58 26 54 1
59 26 55 1
60 27 56 1
61 27 57 1
62 29 58 1
63 30 59 1
64 30 60 1
65 32 61 1
66 33 62 1
67 35 63 1
68 36 64 1
69 38 65 1
70 39 66 1
@<TRIPOS>SUBSTRUCTURE
1	UNK0	1	GROUP	1 ****	UNK
