ZINC05923011
 OpenBabel12222119243D

 80 84  0  0  1  0  0  0  0  0999 V2000
    3.3810    3.2662    3.8547 C   0  0  0  0  0  0  0  0  0  0  0  0
    3.2857    1.7457    3.7146 C   0  0  0  0  0  0  0  0  0  0  0  0
    4.2579    1.2706    2.6324 C   0  0  0  0  0  0  0  0  0  0  0  0
    4.1659   -0.2508    2.5021 C   0  0  0  0  0  0  0  0  0  0  0  0
    2.7433   -0.6673    2.1287 C   0  0  2  0  0  0  0  0  0  0  0  0
    2.3818   -0.0758    0.7669 C   0  0  0  0  0  0  0  0  0  0  0  0
    1.0000   -0.5746    0.3369 C   0  0  0  0  0  0  0  0  0  0  0  0
   -0.0489   -0.0917    1.3424 C   0  0  2  0  0  0  0  0  0  0  0  0
    0.3528   -0.5130    2.7230 C   0  0  0  0  0  0  0  0  0  0  0  0
   -0.4238   -1.1618    3.5386 C   0  0  0  0  0  0  0  0  0  0  0  0
   -1.8183   -1.5765    3.1735 C   0  0  0  0  0  0  0  0  0  0  0  0
   -2.3816   -0.6099    2.1236 C   0  0  1  0  0  0  0  0  0  0  0  0
   -1.4229   -0.5887    0.9229 C   0  0  1  0  0  0  0  0  0  0  0  0
   -1.9845    0.3682   -0.1371 C   0  0  0  0  0  0  0  0  0  0  0  0
   -3.3794   -0.0439   -0.5006 C   0  0  0  0  0  0  0  0  0  0  0  0
   -4.1600   -0.6930    0.3115 C   0  0  0  0  0  0  0  0  0  0  0  0
   -3.7622   -1.0940    1.7108 C   0  0  2  0  0  0  0  0  0  0  0  0
   -4.8143   -0.6658    2.6966 C   0  0  0  0  0  0  0  0  0  0  0  0
   -6.1870   -1.1800    2.2576 C   0  0  1  0  0  0  0  0  0  0  0  0
   -6.5583   -0.5722    0.9041 C   0  0  1  0  0  0  0  0  0  0  0  0
   -5.5616   -1.0439   -0.1592 C   0  0  2  0  0  0  0  0  0  0  0  0
   -5.6804   -2.5583   -0.3416 C   0  0  0  0  0  0  0  0  0  0  0  0
   -5.8514   -0.3396   -1.4862 C   0  0  0  0  0  0  0  0  0  0  0  0
   -7.1702   -0.6728   -1.9242 O   0  0  0  0  0  0  0  0  0  0  0  0
   -7.8757   -0.9893    0.5403 O   0  0  0  0  0  0  0  0  0  0  0  0
   -6.1470   -2.6039    2.1442 O   0  0  0  0  0  0  0  0  0  0  0  0
   -3.7511   -2.6239    1.7261 C   0  0  0  0  0  0  0  0  0  0  0  0
   -1.2974   -1.9924    0.3271 C   0  0  0  0  0  0  0  0  0  0  0  0
    1.7586   -0.1633    3.1870 C   0  0  2  0  0  0  0  0  0  0  0  0
    1.8596    1.3578    3.3202 C   0  0  0  0  0  0  0  0  0  0  0  0
   -0.0681    1.4376    1.3030 C   0  0  0  0  0  0  0  0  0  0  0  0
    2.6537   -2.1691    2.0412 C   0  0  0  0  0  0  0  0  0  0  0  0
    1.8830   -2.7707    2.7511 O   0  0  0  0  0  0  0  0  0  0  0  0
    3.6437    1.0866    5.0482 C   0  0  0  0  0  0  0  0  0  0  0  0
    3.4301   -2.8384    1.1745 O   0  5  0  0  0  0  0  0  0  0  0  0
    2.6807    3.6084    4.6309 H   0  0  0  0  0  0  0  0  0  0  0  0
    3.1247    3.7404    2.8958 H   0  0  0  0  0  0  0  0  0  0  0  0
    4.4064    3.5456    4.1383 H   0  0  0  0  0  0  0  0  0  0  0  0
    5.2842    1.5531    2.9097 H   0  0  0  0  0  0  0  0  0  0  0  0
    3.9946    1.7373    1.6717 H   0  0  0  0  0  0  0  0  0  0  0  0
    4.8618   -0.5927    1.7218 H   0  0  0  0  0  0  0  0  0  0  0  0
    4.4419   -0.7171    3.4594 H   0  0  0  0  0  0  0  0  0  0  0  0
    3.1298   -0.3851    0.0221 H   0  0  0  0  0  0  0  0  0  0  0  0
    2.3688    1.0219    0.8363 H   0  0  0  0  0  0  0  0  0  0  0  0
    0.7608   -0.1783   -0.6610 H   0  0  0  0  0  0  0  0  0  0  0  0
    0.9988   -1.6742    0.3060 H   0  0  0  0  0  0  0  0  0  0  0  0
   -0.0425   -1.4174    4.5382 H   0  0  0  0  0  0  0  0  0  0  0  0
   -2.4552   -1.5544    4.0701 H   0  0  0  0  0  0  0  0  0  0  0  0
   -1.8016   -2.5960    2.7608 H   0  0  0  0  0  0  0  0  0  0  0  0
   -2.4720    0.4099    2.5258 H   0  0  0  0  0  0  0  0  0  0  0  0
   -1.3487    0.3366   -1.0342 H   0  0  0  0  0  0  0  0  0  0  0  0
   -1.9987    1.3922    0.2645 H   0  0  0  0  0  0  0  0  0  0  0  0
   -3.7597    0.2147   -1.4999 H   0  0  0  0  0  0  0  0  0  0  0  0
   -4.5725   -1.0739    3.6891 H   0  0  0  0  0  0  0  0  0  0  0  0
   -4.8377    0.4325    2.7532 H   0  0  0  0  0  0  0  0  0  0  0  0
   -6.9400   -0.8898    3.0051 H   0  0  0  0  0  0  0  0  0  0  0  0
   -6.5269    0.5251    0.9743 H   0  0  0  0  0  0  0  0  0  0  0  0
   -5.4800   -3.0591    0.6171 H   0  0  0  0  0  0  0  0  0  0  0  0
   -4.9478   -2.8953   -1.0898 H   0  0  0  0  0  0  0  0  0  0  0  0
   -6.6954   -2.8106   -0.6823 H   0  0  0  0  0  0  0  0  0  0  0  0
   -5.7756    0.7490   -1.3479 H   0  0  0  0  0  0  0  0  0  0  0  0
   -5.1216   -0.6649   -2.2422 H   0  0  0  0  0  0  0  0  0  0  0  0
   -7.8284   -0.3797   -1.2452 H   0  0  0  0  0  0  0  0  0  0  0  0
   -8.5209   -0.6841    1.2264 H   0  0  0  0  0  0  0  0  0  0  0  0
   -5.9121   -2.9996    3.0207 H   0  0  0  0  0  0  0  0  0  0  0  0
   -3.5235   -2.9917    2.7375 H   0  0  0  0  0  0  0  0  0  0  0  0
   -3.0036   -3.0051    1.0148 H   0  0  0  0  0  0  0  0  0  0  0  0
   -4.7450   -2.9898    1.4291 H   0  0  0  0  0  0  0  0  0  0  0  0
   -0.8754   -2.6749    1.0795 H   0  0  0  0  0  0  0  0  0  0  0  0
   -0.6357   -1.9614   -0.5511 H   0  0  0  0  0  0  0  0  0  0  0  0
   -2.2913   -2.3527    0.0233 H   0  0  0  0  0  0  0  0  0  0  0  0
    1.9880   -0.6275    4.1575 H   0  0  0  0  0  0  0  0  0  0  0  0
    1.1584    1.7046    4.0936 H   0  0  0  0  0  0  0  0  0  0  0  0
    1.6040    1.8267    2.3585 H   0  0  0  0  0  0  0  0  0  0  0  0
   -0.3396    1.7890    0.2966 H   0  0  0  0  0  0  0  0  0  0  0  0
    0.9171    1.8380    1.5841 H   0  0  0  0  0  0  0  0  0  0  0  0
   -0.8178    1.8014    2.0210 H   0  0  0  0  0  0  0  0  0  0  0  0
    2.9442    1.4270    5.8259 H   0  0  0  0  0  0  0  0  0  0  0  0
    4.6696    1.3644    5.3318 H   0  0  0  0  0  0  0  0  0  0  0  0
    3.5753   -0.0067    4.9479 H   0  0  0  0  0  0  0  0  0  0  0  0
  1  2  1  0  0  0  0
  1 36  1  0  0  0  0
  1 37  1  0  0  0  0
  1 38  1  0  0  0  0
  2 30  1  0  0  0  0
  2  3  1  0  0  0  0
  2 34  1  0  0  0  0
  3  4  1  0  0  0  0
  3 39  1  0  0  0  0
  3 40  1  0  0  0  0
  4  5  1  0  0  0  0
  4 41  1  0  0  0  0
  4 42  1  0  0  0  0
  5 29  1  0  0  0  0
  5  6  1  0  0  0  0
  5 32  1  6  0  0  0
  6  7  1  0  0  0  0
  6 43  1  0  0  0  0
  6 44  1  0  0  0  0
  7  8  1  0  0  0  0
  7 45  1  0  0  0  0
  7 46  1  0  0  0  0
  8 13  1  0  0  0  0
  8  9  1  0  0  0  0
  8 31  1  6  0  0  0
  9 10  2  0  0  0  0
  9 29  1  0  0  0  0
 10 11  1  0  0  0  0
 10 47  1  0  0  0  0
 11 12  1  0  0  0  0
 11 48  1  0  0  0  0
 11 49  1  0  0  0  0
 12 17  1  0  0  0  0
 12 13  1  0  0  0  0
 12 50  1  1  0  0  0
 13 14  1  0  0  0  0
 13 28  1  6  0  0  0
 14 15  1  0  0  0  0
 14 51  1  0  0  0  0
 14 52  1  0  0  0  0
 15 16  2  0  0  0  0
 15 53  1  0  0  0  0
 16 21  1  0  0  0  0
 16 17  1  0  0  0  0
 17 18  1  0  0  0  0
 17 27  1  1  0  0  0
 18 19  1  0  0  0  0
 18 54  1  0  0  0  0
 18 55  1  0  0  0  0
 19 20  1  0  0  0  0
 19 26  1  0  0  0  0
 19 56  1  1  0  0  0
 20 21  1  0  0  0  0
 20 25  1  0  0  0  0
 20 57  1  1  0  0  0
 21 22  1  6  0  0  0
 21 23  1  0  0  0  0
 22 58  1  0  0  0  0
 22 59  1  0  0  0  0
 22 60  1  0  0  0  0
 23 24  1  0  0  0  0
 23 61  1  0  0  0  0
 23 62  1  0  0  0  0
 24 63  1  0  0  0  0
 25 64  1  0  0  0  0
 26 65  1  0  0  0  0
 27 66  1  0  0  0  0
 27 67  1  0  0  0  0
 27 68  1  0  0  0  0
 28 69  1  0  0  0  0
 28 70  1  0  0  0  0
 28 71  1  0  0  0  0
 29 30  1  0  0  0  0
 29 72  1  1  0  0  0
 30 73  1  0  0  0  0
 30 74  1  0  0  0  0
 31 75  1  0  0  0  0
 31 76  1  0  0  0  0
 31 77  1  0  0  0  0
 32 33  2  0  0  0  0
 32 35  1  0  0  0  0
 34 78  1  0  0  0  0
 34 79  1  0  0  0  0
 34 80  1  0  0  0  0
M  CHG  1  35  -1
M  END
>  <Name>
ZINC05923011

>  <reference>
BDB50233854

>  <quality>
0.801

>  <status>
decoy

$$$$
