ZINC14884725
 OpenBabel12222119243D

 71 76  0  0  1  0  0  0  0  0999 V2000
   -1.7401    4.8815    4.8456 C   0  0  0  0  0  0  0  0  0  0  0  0
   -0.8636    4.2074    3.8217 C   0  0  0  0  0  0  0  0  0  0  0  0
    0.3683    4.6620    3.6268 C   0  0  0  0  0  0  0  0  0  0  0  0
    1.2387    4.0223    2.6238 C   0  0  0  0  0  0  0  0  0  0  0  0
    2.3020    4.5169    2.3049 O   0  0  0  0  0  0  0  0  0  0  0  0
    0.8085    2.8599    2.0700 O   0  0  0  0  0  0  0  0  0  0  0  0
   -0.6156    2.8393    1.7555 C   0  0  2  0  0  0  0  0  0  0  0  0
   -1.4109    3.0400    3.0470 C   0  0  0  0  0  0  0  0  0  0  0  0
   -0.9836    1.4921    1.1306 C   0  0  2  0  0  0  0  0  0  0  0  0
   -0.3088    1.2608   -0.2100 C   0  0  2  0  0  0  0  0  0  0  0  0
    1.0357    1.8218   -0.5311 C   0  0  0  0  0  0  0  0  0  0  0  0
    1.3312    1.7892   -2.0292 C   0  0  0  0  0  0  0  0  0  0  0  0
    0.1424    1.7732   -2.9650 C   0  0  2  0  0  0  0  0  0  0  0  0
   -0.2055    3.0618   -3.6125 C   0  0  2  0  0  0  0  0  0  0  0  0
    0.2834    3.2179   -5.0437 C   0  0  0  0  0  0  0  0  0  0  0  0
    1.6158    3.9152   -5.0716 C   0  0  0  0  0  0  0  0  0  0  0  0
    1.9375    4.7864   -4.1815 C   0  0  0  0  0  0  0  0  0  0  0  0
    3.2457    5.5499   -4.3505 C   0  0  0  0  0  0  0  0  0  0  0  0
    3.0026    7.0118   -4.1107 C   0  0  0  0  0  0  0  0  0  0  0  0
    1.8887    7.5005   -3.5817 C   0  0  0  0  0  0  0  0  0  0  0  0
    0.7824    6.6325   -3.1660 C   0  0  0  0  0  0  0  0  0  0  0  0
   -0.3278    7.0707   -2.9748 O   0  0  0  0  0  0  0  0  0  0  0  0
    1.1079    5.1578   -2.9862 C   0  0  1  0  0  0  0  0  0  0  0  0
   -0.1597    4.3462   -2.8433 C   0  0  2  0  0  0  0  0  0  0  0  0
   -0.5226    4.1098   -1.3652 C   0  0  0  0  0  0  0  0  0  0  0  0
   -1.7031    3.1603   -1.2541 C   0  0  0  0  0  0  0  0  0  0  0  0
   -1.4019    1.6887   -1.2243 C   0  0  1  0  0  0  0  0  0  0  0  0
   -1.0013    1.1078   -2.4318 O   0  0  0  0  0  0  0  0  0  0  0  0
   -2.5896    0.9905   -0.5116 C   0  0  1  0  0  0  0  0  0  0  0  0
   -2.4076    1.4257    0.8620 O   0  0  0  0  0  0  0  0  0  0  0  0
   -3.8270    1.4585   -1.0387 O   0  0  0  0  0  0  0  0  0  0  0  0
    1.9951    5.0720   -1.7400 C   0  0  0  0  0  0  0  0  0  0  0  0
    0.5540    0.8956   -4.0370 O   0  0  0  0  0  0  0  0  0  0  0  0
   -0.6059    0.3605    2.0983 C   0  0  0  0  0  0  0  0  0  0  0  0
    0.8768    5.8309    4.4308 C   0  0  0  0  0  0  0  0  0  0  0  0
   -2.0407    4.0826    5.5394 H   0  0  0  0  0  0  0  0  0  0  0  0
   -2.6419    5.1895    4.2961 H   0  0  0  0  0  0  0  0  0  0  0  0
   -1.2554    5.7237    5.3611 H   0  0  0  0  0  0  0  0  0  0  0  0
   -0.8519    3.6435    1.0431 H   0  0  0  0  0  0  0  0  0  0  0  0
   -2.4659    3.2282    2.7990 H   0  0  0  0  0  0  0  0  0  0  0  0
   -1.3426    2.1303    3.6617 H   0  0  0  0  0  0  0  0  0  0  0  0
    0.0150    0.2097   -0.2280 H   0  0  0  0  0  0  0  0  0  0  0  0
    1.8046    1.2410   -0.0007 H   0  0  0  0  0  0  0  0  0  0  0  0
    1.0847    2.8623   -0.1777 H   0  0  0  0  0  0  0  0  0  0  0  0
    1.9538    2.6613   -2.2780 H   0  0  0  0  0  0  0  0  0  0  0  0
    1.9486    0.9040   -2.2418 H   0  0  0  0  0  0  0  0  0  0  0  0
   -1.2922    2.8922   -3.6286 H   0  0  0  0  0  0  0  0  0  0  0  0
    0.3834    2.2243   -5.5049 H   0  0  0  0  0  0  0  0  0  0  0  0
   -0.4472    3.8074   -5.6170 H   0  0  0  0  0  0  0  0  0  0  0  0
    2.3316    3.6747   -5.8715 H   0  0  0  0  0  0  0  0  0  0  0  0
    3.6273    5.4048   -5.3719 H   0  0  0  0  0  0  0  0  0  0  0  0
    3.9844    5.1775   -3.6255 H   0  0  0  0  0  0  0  0  0  0  0  0
    3.7960    7.7204   -4.3906 H   0  0  0  0  0  0  0  0  0  0  0  0
    1.7921    8.5884   -3.4511 H   0  0  0  0  0  0  0  0  0  0  0  0
   -0.9253    4.9807   -3.3137 H   0  0  0  0  0  0  0  0  0  0  0  0
   -0.7826    5.0695   -0.8948 H   0  0  0  0  0  0  0  0  0  0  0  0
    0.3428    3.6768   -0.8422 H   0  0  0  0  0  0  0  0  0  0  0  0
   -2.3841    3.3545   -2.0958 H   0  0  0  0  0  0  0  0  0  0  0  0
   -2.2661    3.4144   -0.3439 H   0  0  0  0  0  0  0  0  0  0  0  0
   -2.6120   -0.1029   -0.6294 H   0  0  0  0  0  0  0  0  0  0  0  0
   -3.8618    1.2619   -2.0084 H   0  0  0  0  0  0  0  0  0  0  0  0
    2.8396    5.7712   -1.8293 H   0  0  0  0  0  0  0  0  0  0  0  0
    2.3741    4.0467   -1.6166 H   0  0  0  0  0  0  0  0  0  0  0  0
    1.3983    5.3421   -0.8563 H   0  0  0  0  0  0  0  0  0  0  0  0
    0.7248   -0.0255   -3.7168 H   0  0  0  0  0  0  0  0  0  0  0  0
   -1.1532    0.4868    3.0441 H   0  0  0  0  0  0  0  0  0  0  0  0
    0.4761    0.3895    2.2944 H   0  0  0  0  0  0  0  0  0  0  0  0
   -0.8700   -0.6088    1.6502 H   0  0  0  0  0  0  0  0  0  0  0  0
    0.7648    5.5277    5.4822 H   0  0  0  0  0  0  0  0  0  0  0  0
    0.1578    6.6425    4.2454 H   0  0  0  0  0  0  0  0  0  0  0  0
    1.9092    6.1203    4.1850 H   0  0  0  0  0  0  0  0  0  0  0  0
  1  2  1  0  0  0  0
  1 36  1  0  0  0  0
  1 37  1  0  0  0  0
  1 38  1  0  0  0  0
  2  8  1  0  0  0  0
  2  3  2  0  0  0  0
  3  4  1  0  0  0  0
  3 35  1  0  0  0  0
  4  5  2  0  0  0  0
  4  6  1  0  0  0  0
  6  7  1  0  0  0  0
  7  8  1  0  0  0  0
  7  9  1  0  0  0  0
  7 39  1  6  0  0  0
  8 40  1  0  0  0  0
  8 41  1  0  0  0  0
  9 30  1  0  0  0  0
  9 10  1  0  0  0  0
  9 34  1  1  0  0  0
 10 27  1  0  0  0  0
 10 11  1  0  0  0  0
 10 42  1  6  0  0  0
 11 12  1  0  0  0  0
 11 43  1  0  0  0  0
 11 44  1  0  0  0  0
 12 13  1  0  0  0  0
 12 45  1  0  0  0  0
 12 46  1  0  0  0  0
 13 28  1  0  0  0  0
 13 14  1  0  0  0  0
 13 33  1  6  0  0  0
 14 24  1  0  0  0  0
 14 15  1  0  0  0  0
 14 47  1  6  0  0  0
 15 16  1  0  0  0  0
 15 48  1  0  0  0  0
 15 49  1  0  0  0  0
 16 17  2  0  0  0  0
 16 50  1  0  0  0  0
 17 23  1  0  0  0  0
 17 18  1  0  0  0  0
 18 19  1  0  0  0  0
 18 51  1  0  0  0  0
 18 52  1  0  0  0  0
 19 20  2  0  0  0  0
 19 53  1  0  0  0  0
 20 21  1  0  0  0  0
 20 54  1  0  0  0  0
 21 22  2  0  0  0  0
 21 23  1  0  0  0  0
 23 24  1  0  0  0  0
 23 32  1  1  0  0  0
 24 25  1  0  0  0  0
 24 55  1  6  0  0  0
 25 26  1  0  0  0  0
 25 56  1  0  0  0  0
 25 57  1  0  0  0  0
 26 27  1  0  0  0  0
 26 58  1  0  0  0  0
 26 59  1  0  0  0  0
 27 28  1  6  0  0  0
 27 29  1  0  0  0  0
 29 30  1  0  0  0  0
 29 31  1  0  0  0  0
 29 60  1  6  0  0  0
 31 61  1  0  0  0  0
 32 62  1  0  0  0  0
 32 63  1  0  0  0  0
 32 64  1  0  0  0  0
 33 65  1  0  0  0  0
 34 66  1  0  0  0  0
 34 67  1  0  0  0  0
 34 68  1  0  0  0  0
 35 69  1  0  0  0  0
 35 70  1  0  0  0  0
 35 71  1  0  0  0  0
M  END
>  <Name>
ZINC14884725

>  <reference>
BDB50233854

>  <quality>
0.804

>  <status>
decoy

$$$$
