ZINC17208235
 OpenBabel12222119243D

 55 59  0  0  1  0  0  0  0  0999 V2000
   15.7872   -8.9235    1.0210 C   0  0  0  0  0  0  0  0  0  0  0  0
   14.2854   -8.7350    1.2446 C   0  0  2  0  0  0  0  0  0  0  0  0
   13.5081   -9.7903    0.4522 C   0  0  0  0  0  0  0  0  0  0  0  0
   12.0353   -9.7676    0.8624 C   0  0  0  0  0  0  0  0  0  0  0  0
   11.5131   -8.3382    0.7457 C   0  0  0  0  0  0  0  0  0  0  0  0
   12.3659   -7.2948    0.7012 C   0  0  0  0  0  0  0  0  0  0  0  0
   11.3327   -5.8608    0.5667 S   0  0  0  0  0  0  0  0  0  0  0  0
    9.7526   -6.6695    0.5711 C   0  0  0  0  0  0  0  0  0  0  0  0
   10.0831   -8.0310    0.6766 C   0  0  0  0  0  0  0  0  0  0  0  0
    8.9784   -8.9401    0.7032 C   0  0  0  0  0  0  0  0  0  0  0  0
    9.1683  -10.1410    0.7922 O   0  0  0  0  0  0  0  0  0  0  0  0
    7.7268   -8.4510    0.6283 N   0  0  0  0  0  0  0  0  0  0  0  0
    7.4952   -7.1097    0.5279 C   0  0  0  0  0  0  0  0  0  0  0  0
    8.4947   -6.2514    0.4955 N   0  0  0  0  0  0  0  0  0  0  0  0
    5.8381   -6.5184    0.4330 S   0  0  0  0  0  0  0  0  0  0  0  0
    6.1457   -4.7383    0.3197 C   0  0  0  0  0  0  0  0  0  0  0  0
    4.8316   -4.0065    0.2263 C   0  0  0  0  0  0  0  0  0  0  0  0
    3.7901   -4.6271    0.2355 O   0  0  0  0  0  0  0  0  0  0  0  0
    4.8141   -2.6621    0.1326 N   0  0  0  0  0  0  0  0  0  0  0  0
    3.6389   -2.0076    0.0491 C   0  0  0  0  0  0  0  0  0  0  0  0
    2.5948   -2.6298    0.0583 O   0  0  0  0  0  0  0  0  0  0  0  0
    3.6215   -0.6632   -0.0446 N   0  0  0  0  0  0  0  0  0  0  0  0
    2.4012    0.0251   -0.0192 C   0  0  0  0  0  0  0  0  0  0  0  0
    1.3459   -0.4600    0.7414 C   0  0  0  0  0  0  0  0  0  0  0  0
    0.1425    0.2177    0.7660 C   0  0  0  0  0  0  0  0  0  0  0  0
   -0.0157    1.3840    0.0321 C   0  0  0  0  0  0  0  0  0  0  0  0
    1.0399    1.8735   -0.7282 C   0  0  0  0  0  0  0  0  0  0  0  0
    2.2471    1.1921   -0.7538 C   0  0  0  0  0  0  0  0  0  0  0  0
    0.9064    3.0210   -1.4481 O   0  0  0  0  0  0  0  0  0  0  0  0
   -0.4289    3.4740   -1.6961 C   0  0  0  0  0  0  0  0  0  0  0  0
   -1.2150    3.3962   -0.3803 C   0  0  0  0  0  0  0  0  0  0  0  0
   -1.2122    2.0342    0.0624 O   0  0  0  0  0  0  0  0  0  0  0  0
   13.8626   -7.3424    0.7554 C   0  0  0  0  0  0  0  0  0  0  0  0
   16.3405   -8.1552    1.5809 H   0  0  0  0  0  0  0  0  0  0  0  0
   16.0131   -8.8280   -0.0513 H   0  0  0  0  0  0  0  0  0  0  0  0
   16.0895   -9.9213    1.3717 H   0  0  0  0  0  0  0  0  0  0  0  0
   14.0683   -8.8386    2.3180 H   0  0  0  0  0  0  0  0  0  0  0  0
   13.9286  -10.7860    0.6568 H   0  0  0  0  0  0  0  0  0  0  0  0
   13.5910   -9.5747   -0.6233 H   0  0  0  0  0  0  0  0  0  0  0  0
   11.9363  -10.1112    1.9027 H   0  0  0  0  0  0  0  0  0  0  0  0
   11.4574  -10.4257    0.1968 H   0  0  0  0  0  0  0  0  0  0  0  0
    6.9284   -9.1014    0.6471 H   0  0  0  0  0  0  0  0  0  0  0  0
    6.7476   -4.5254   -0.5761 H   0  0  0  0  0  0  0  0  0  0  0  0
    6.6891   -4.4023    1.2151 H   0  0  0  0  0  0  0  0  0  0  0  0
    5.6989   -2.1349    0.1248 H   0  0  0  0  0  0  0  0  0  0  0  0
    4.5051   -0.1417   -0.1349 H   0  0  0  0  0  0  0  0  0  0  0  0
    1.4682   -1.3845    1.3248 H   0  0  0  0  0  0  0  0  0  0  0  0
   -0.6924   -0.1685    1.3691 H   0  0  0  0  0  0  0  0  0  0  0  0
    3.0829    1.5768   -1.3566 H   0  0  0  0  0  0  0  0  0  0  0  0
   -0.4068    4.5148   -2.0515 H   0  0  0  0  0  0  0  0  0  0  0  0
   -0.9058    2.8293   -2.4490 H   0  0  0  0  0  0  0  0  0  0  0  0
   -2.2503    3.7285   -0.5470 H   0  0  0  0  0  0  0  0  0  0  0  0
   -0.7325    4.0320    0.3766 H   0  0  0  0  0  0  0  0  0  0  0  0
   14.2309   -6.5776    1.4550 H   0  0  0  0  0  0  0  0  0  0  0  0
   14.2738   -7.1620   -0.2488 H   0  0  0  0  0  0  0  0  0  0  0  0
  1  2  1  0  0  0  0
  1 34  1  0  0  0  0
  1 35  1  0  0  0  0
  1 36  1  0  0  0  0
  2 33  1  0  0  0  0
  2  3  1  0  0  0  0
  2 37  1  1  0  0  0
  3  4  1  0  0  0  0
  3 38  1  0  0  0  0
  3 39  1  0  0  0  0
  4  5  1  0  0  0  0
  4 40  1  0  0  0  0
  4 41  1  0  0  0  0
  5  9  1  0  0  0  0
  5  6  2  0  0  0  0
  6  7  1  0  0  0  0
  6 33  1  0  0  0  0
  7  8  1  0  0  0  0
  8 14  1  0  0  0  0
  8  9  2  0  0  0  0
  9 10  1  0  0  0  0
 10 11  2  0  0  0  0
 10 12  1  0  0  0  0
 12 13  1  0  0  0  0
 12 42  1  0  0  0  0
 13 14  2  0  0  0  0
 13 15  1  0  0  0  0
 15 16  1  0  0  0  0
 16 17  1  0  0  0  0
 16 43  1  0  0  0  0
 16 44  1  0  0  0  0
 17 18  2  0  0  0  0
 17 19  1  0  0  0  0
 19 20  1  0  0  0  0
 19 45  1  0  0  0  0
 20 21  2  0  0  0  0
 20 22  1  0  0  0  0
 22 23  1  0  0  0  0
 22 46  1  0  0  0  0
 23 28  2  0  0  0  0
 23 24  1  0  0  0  0
 24 25  2  0  0  0  0
 24 47  1  0  0  0  0
 25 26  1  0  0  0  0
 25 48  1  0  0  0  0
 26 32  1  0  0  0  0
 26 27  2  0  0  0  0
 27 28  1  0  0  0  0
 27 29  1  0  0  0  0
 28 49  1  0  0  0  0
 29 30  1  0  0  0  0
 30 31  1  0  0  0  0
 30 50  1  0  0  0  0
 30 51  1  0  0  0  0
 31 32  1  0  0  0  0
 31 52  1  0  0  0  0
 31 53  1  0  0  0  0
 33 54  1  0  0  0  0
 33 55  1  0  0  0  0
M  END
>  <Name>
ZINC17208235

>  <reference>
BDB50233854

>  <quality>
0.796

>  <status>
decoy

$$$$
