ZINC31166971
 OpenBabel12222119243D

 77 81  0  0  1  0  0  0  0  0999 V2000
   -4.0886    1.9408    9.3188 C   0  0  0  0  0  0  0  0  0  0  0  0
   -3.4881    2.6861    8.1252 C   0  0  0  0  0  0  0  0  0  0  0  0
   -2.0349    3.0535    8.4320 C   0  0  2  0  0  0  0  0  0  0  0  0
   -1.9947    4.0493    9.5929 C   0  0  0  0  0  0  0  0  0  0  0  0
   -1.3967    3.6872    7.1942 C   0  0  1  0  0  0  0  0  0  0  0  0
    0.0636    3.9477    7.4596 C   0  0  0  0  0  0  0  0  0  0  0  0
    0.9058    3.4259    6.7680 O   0  0  0  0  0  0  0  0  0  0  0  0
    0.4288    4.7596    8.4642 O   0  5  0  0  0  0  0  0  0  0  0  0
   -1.5311    2.7760    6.0549 N   0  0  0  0  0  0  0  0  0  0  0  0
   -2.1500    3.1040    4.7653 C   0  0  0  0  0  0  0  0  0  0  0  0
   -2.0596    1.8552    3.9246 C   0  0  0  0  0  0  0  0  0  0  0  0
   -1.4223    0.8939    4.7096 C   0  0  0  0  0  0  0  0  0  0  0  0
   -1.1958   -0.3829    4.1929 C   0  0  0  0  0  0  0  0  0  0  0  0
   -1.6118   -0.6819    2.9050 C   0  0  0  0  0  0  0  0  0  0  0  0
   -2.2454    0.2789    2.1381 C   0  0  0  0  0  0  0  0  0  0  0  0
   -2.4728    1.5571    2.6347 C   0  0  0  0  0  0  0  0  0  0  0  0
   -3.0965    2.3388    1.7096 O   0  0  0  0  0  0  0  0  0  0  0  0
   -2.9528    1.7501    0.4073 C   0  0  2  0  0  0  0  0  0  0  0  0
   -2.8036    0.2430    0.7261 C   0  0  0  0  0  0  0  0  0  0  0  0
   -1.6598    2.2032   -0.2436 C   0  0  1  0  0  0  0  0  0  0  0  0
   -1.5591    1.7031   -1.6750 C   0  0  0  0  0  0  0  0  0  0  0  0
   -2.8203    1.9977   -2.4807 C   0  0  0  0  0  0  0  0  0  0  0  0
   -4.0714    1.4102   -1.8177 C   0  0  1  0  0  0  0  0  0  0  0  0
   -4.2048    2.0090   -0.4201 C   0  0  2  0  0  0  0  0  0  0  0  0
   -4.4834    3.5092   -0.5597 C   0  0  0  0  0  0  0  0  0  0  0  0
   -5.8213    3.7112   -1.2751 C   0  0  2  0  0  0  0  0  0  0  0  0
   -5.7770    3.1019   -2.6690 C   0  0  2  0  0  0  0  0  0  0  0  0
   -5.2860    1.6622   -2.6997 C   0  0  0  0  0  0  0  0  0  0  0  0
   -4.9234    1.3459   -4.1726 C   0  0  0  0  0  0  0  0  0  0  0  0
   -6.4417    0.7083   -2.3657 C   0  0  0  0  0  0  0  0  0  0  0  0
   -4.9587    3.9108   -3.5223 O   0  0  0  0  0  0  0  0  0  0  0  0
   -6.0516    5.1261   -1.4004 O   0  0  0  0  0  0  0  0  0  0  0  0
   -5.3796    1.3999    0.3639 C   0  0  0  0  0  0  0  0  0  0  0  0
   -1.4394    3.7039   -0.1410 C   0  0  0  0  0  0  0  0  0  0  0  0
   -1.3973   -1.9233    2.3955 O   0  0  0  0  0  0  0  0  0  0  0  0
   -1.1083    1.5008    6.0184 C   0  0  0  0  0  0  0  0  0  0  0  0
   -0.5474    0.9277    6.9319 O   0  0  0  0  0  0  0  0  0  0  0  0
   -4.0543    2.5851   10.2097 H   0  0  0  0  0  0  0  0  0  0  0  0
   -3.5114    1.0237    9.5079 H   0  0  0  0  0  0  0  0  0  0  0  0
   -5.1334    1.6763    9.0989 H   0  0  0  0  0  0  0  0  0  0  0  0
   -3.5225    2.0410    7.2349 H   0  0  0  0  0  0  0  0  0  0  0  0
   -4.0653    3.6032    7.9361 H   0  0  0  0  0  0  0  0  0  0  0  0
   -1.4778    2.1460    8.7079 H   0  0  0  0  0  0  0  0  0  0  0  0
   -2.4530    3.5945   10.4835 H   0  0  0  0  0  0  0  0  0  0  0  0
   -2.5515    4.9573    9.3179 H   0  0  0  0  0  0  0  0  0  0  0  0
   -0.9501    4.3139    9.8140 H   0  0  0  0  0  0  0  0  0  0  0  0
   -1.9029    4.6368    6.9660 H   0  0  0  0  0  0  0  0  0  0  0  0
   -1.5969    3.9216    4.2799 H   0  0  0  0  0  0  0  0  0  0  0  0
   -3.2048    3.3782    4.9145 H   0  0  0  0  0  0  0  0  0  0  0  0
   -0.6909   -1.1461    4.8033 H   0  0  0  0  0  0  0  0  0  0  0  0
   -2.0817   -0.2231    0.0394 H   0  0  0  0  0  0  0  0  0  0  0  0
   -3.7873   -0.2492    0.7133 H   0  0  0  0  0  0  0  0  0  0  0  0
   -0.8391    1.7433    0.3264 H   0  0  0  0  0  0  0  0  0  0  0  0
   -0.6999    2.1849   -2.1645 H   0  0  0  0  0  0  0  0  0  0  0  0
   -1.3849    0.6170   -1.6659 H   0  0  0  0  0  0  0  0  0  0  0  0
   -2.9411    3.0869   -2.5760 H   0  0  0  0  0  0  0  0  0  0  0  0
   -2.7133    1.5709   -3.4888 H   0  0  0  0  0  0  0  0  0  0  0  0
   -3.9911    0.3188   -1.7060 H   0  0  0  0  0  0  0  0  0  0  0  0
   -4.5286    3.9687    0.4387 H   0  0  0  0  0  0  0  0  0  0  0  0
   -3.6801    3.9799   -1.1455 H   0  0  0  0  0  0  0  0  0  0  0  0
   -6.6220    3.2254   -0.6981 H   0  0  0  0  0  0  0  0  0  0  0  0
   -6.8160    3.0794   -3.0295 H   0  0  0  0  0  0  0  0  0  0  0  0
   -4.6202    0.2921   -4.2601 H   0  0  0  0  0  0  0  0  0  0  0  0
   -4.0956    1.9939   -4.4963 H   0  0  0  0  0  0  0  0  0  0  0  0
   -5.7997    1.5273   -4.8122 H   0  0  0  0  0  0  0  0  0  0  0  0
   -6.7171    0.8505   -1.3103 H   0  0  0  0  0  0  0  0  0  0  0  0
   -6.0924   -0.3252   -2.5065 H   0  0  0  0  0  0  0  0  0  0  0  0
   -7.3073    0.9084   -3.0144 H   0  0  0  0  0  0  0  0  0  0  0  0
   -4.0412    3.9560   -3.1531 H   0  0  0  0  0  0  0  0  0  0  0  0
   -5.3290    5.5435   -1.9330 H   0  0  0  0  0  0  0  0  0  0  0  0
   -5.4878    1.8835    1.3459 H   0  0  0  0  0  0  0  0  0  0  0  0
   -5.2461    0.3153    0.4896 H   0  0  0  0  0  0  0  0  0  0  0  0
   -6.3019    1.5715   -0.2105 H   0  0  0  0  0  0  0  0  0  0  0  0
   -1.4302    3.9736    0.9254 H   0  0  0  0  0  0  0  0  0  0  0  0
   -2.2911    4.2059   -0.6232 H   0  0  0  0  0  0  0  0  0  0  0  0
   -0.4949    3.9984   -0.6219 H   0  0  0  0  0  0  0  0  0  0  0  0
   -1.8308   -2.5413    3.0360 H   0  0  0  0  0  0  0  0  0  0  0  0
  1  2  1  0  0  0  0
  1 38  1  0  0  0  0
  1 39  1  0  0  0  0
  1 40  1  0  0  0  0
  2  3  1  0  0  0  0
  2 41  1  0  0  0  0
  2 42  1  0  0  0  0
  3  4  1  0  0  0  0
  3  5  1  0  0  0  0
  3 43  1  1  0  0  0
  4 44  1  0  0  0  0
  4 45  1  0  0  0  0
  4 46  1  0  0  0  0
  5  6  1  0  0  0  0
  5  9  1  0  0  0  0
  5 47  1  6  0  0  0
  6  7  2  0  0  0  0
  6  8  1  0  0  0  0
  9 36  1  0  0  0  0
  9 10  1  0  0  0  0
 10 11  1  0  0  0  0
 10 48  1  0  0  0  0
 10 49  1  0  0  0  0
 11 16  2  0  0  0  0
 11 12  1  0  0  0  0
 12 13  2  0  0  0  0
 12 36  1  0  0  0  0
 13 14  1  0  0  0  0
 13 50  1  0  0  0  0
 14 15  2  0  0  0  0
 14 35  1  0  0  0  0
 15 19  1  0  0  0  0
 15 16  1  0  0  0  0
 16 17  1  0  0  0  0
 18 17  1  1  0  0  0
 18 24  1  0  0  0  0
 18 19  1  0  0  0  0
 18 20  1  0  0  0  0
 19 51  1  0  0  0  0
 19 52  1  0  0  0  0
 20 21  1  0  0  0  0
 20 34  1  0  0  0  0
 20 53  1  1  0  0  0
 21 22  1  0  0  0  0
 21 54  1  0  0  0  0
 21 55  1  0  0  0  0
 22 23  1  0  0  0  0
 22 56  1  0  0  0  0
 22 57  1  0  0  0  0
 23 28  1  0  0  0  0
 23 24  1  0  0  0  0
 23 58  1  1  0  0  0
 24 25  1  0  0  0  0
 24 33  1  1  0  0  0
 25 26  1  0  0  0  0
 25 59  1  0  0  0  0
 25 60  1  0  0  0  0
 26 27  1  0  0  0  0
 26 32  1  0  0  0  0
 26 61  1  1  0  0  0
 27 28  1  0  0  0  0
 27 31  1  0  0  0  0
 27 62  1  6  0  0  0
 28 29  1  0  0  0  0
 28 30  1  0  0  0  0
 29 63  1  0  0  0  0
 29 64  1  0  0  0  0
 29 65  1  0  0  0  0
 30 66  1  0  0  0  0
 30 67  1  0  0  0  0
 30 68  1  0  0  0  0
 31 69  1  0  0  0  0
 32 70  1  0  0  0  0
 33 71  1  0  0  0  0
 33 72  1  0  0  0  0
 33 73  1  0  0  0  0
 34 74  1  0  0  0  0
 34 75  1  0  0  0  0
 34 76  1  0  0  0  0
 35 77  1  0  0  0  0
 36 37  2  0  0  0  0
M  CHG  1   8  -1
M  END
>  <Name>
ZINC31166971

>  <reference>
BDB50233854

>  <quality>
0.793

>  <status>
decoy

$$$$
