ZINC24759702
 OpenBabel12222119243D

 55 59  0  0  0  0  0  0  0  0999 V2000
   15.7211   -4.5592   10.5710 C   0  0  0  0  0  0  0  0  0  0  0  0
   15.5041   -4.8253    9.1036 C   0  0  0  0  0  0  0  0  0  0  0  0
   16.5595   -5.2442    8.3140 C   0  0  0  0  0  0  0  0  0  0  0  0
   16.3644   -5.4894    6.9674 C   0  0  0  0  0  0  0  0  0  0  0  0
   15.1139   -5.3165    6.4065 C   0  0  0  0  0  0  0  0  0  0  0  0
   14.0524   -4.8961    7.1965 C   0  0  0  0  0  0  0  0  0  0  0  0
   14.2529   -4.6452    8.5476 C   0  0  0  0  0  0  0  0  0  0  0  0
   13.1049   -4.1823    9.4073 C   0  0  0  0  0  0  0  0  0  0  0  0
   12.7832   -4.7200    6.6307 N   0  0  0  0  0  0  0  0  0  0  0  0
   12.4380   -3.5164    6.1181 C   0  0  0  0  0  0  0  0  0  0  0  0
   13.2119   -2.5772    6.1377 O   0  0  0  0  0  0  0  0  0  0  0  0
   11.0938   -3.3843    5.5353 C   0  0  0  0  0  0  0  0  0  0  0  0
   10.6498   -2.1828    4.9835 C   0  0  0  0  0  0  0  0  0  0  0  0
    9.3972   -2.1028    4.4463 C   0  0  0  0  0  0  0  0  0  0  0  0
    8.5454   -3.2146    4.4545 C   0  0  0  0  0  0  0  0  0  0  0  0
    8.9662   -4.4207    4.9994 C   0  0  0  0  0  0  0  0  0  0  0  0
   10.2487   -4.5171    5.5467 C   0  0  0  0  0  0  0  0  0  0  0  0
   10.7007   -5.6728    6.0879 N   0  0  0  0  0  0  0  0  0  0  0  0
   11.9025   -5.7658    6.6012 C   0  0  0  0  0  0  0  0  0  0  0  0
   12.4075   -7.3095    7.2843 S   0  0  0  0  0  0  0  0  0  0  0  0
    7.1885   -3.1050    3.8725 C   0  0  0  0  0  0  0  0  0  0  0  0
    6.4475   -4.0682    3.8728 O   0  0  0  0  0  0  0  0  0  0  0  0
    6.7750   -1.9368    3.3424 N   0  0  0  0  0  0  0  0  0  0  0  0
    5.4909   -1.8331    2.7917 N   0  0  0  0  0  0  0  0  0  0  0  0
    5.0774   -0.6650    2.2616 C   0  0  0  0  0  0  0  0  0  0  0  0
    5.8187    0.2988    2.2614 O   0  0  0  0  0  0  0  0  0  0  0  0
    3.7246   -0.5556    1.6814 C   0  0  0  0  0  0  0  0  0  0  0  0
    2.8714   -1.6619    1.6807 C   0  0  0  0  0  0  0  0  0  0  0  0
    1.6095   -1.5583    1.1379 C   0  0  0  0  0  0  0  0  0  0  0  0
    1.1808   -0.3565    0.5900 C   0  0  0  0  0  0  0  0  0  0  0  0
    2.0280    0.7523    0.5881 C   0  0  0  0  0  0  0  0  0  0  0  0
    3.2943    0.6544    1.1310 C   0  0  0  0  0  0  0  0  0  0  0  0
    1.3761    1.7972   -0.0014 O   0  0  0  0  0  0  0  0  0  0  0  0
   -0.0174    1.4354    0.0099 C   0  0  0  0  0  0  0  0  0  0  0  0
    0.0021   -0.0041    0.0020 O   0  0  0  0  0  0  0  0  0  0  0  0
   14.9950   -5.2030   11.0890 H   0  0  0  0  0  0  0  0  0  0  0  0
   15.3999   -3.5183   10.7236 H   0  0  0  0  0  0  0  0  0  0  0  0
   16.7538   -4.7345   10.9069 H   0  0  0  0  0  0  0  0  0  0  0  0
   17.5562   -5.3826    8.7583 H   0  0  0  0  0  0  0  0  0  0  0  0
   17.2058   -5.8225    6.3420 H   0  0  0  0  0  0  0  0  0  0  0  0
   14.9593   -5.5117    5.3351 H   0  0  0  0  0  0  0  0  0  0  0  0
   13.4458   -3.2366    9.8539 H   0  0  0  0  0  0  0  0  0  0  0  0
   13.0407   -4.9209   10.2199 H   0  0  0  0  0  0  0  0  0  0  0  0
   12.1560   -4.0726    8.8618 H   0  0  0  0  0  0  0  0  0  0  0  0
   14.0199   -2.9158    5.6765 H   0  0  0  0  0  0  0  0  0  0  0  0
   11.3077   -1.3012    4.9811 H   0  0  0  0  0  0  0  0  0  0  0  0
    9.0538   -1.1565    4.0030 H   0  0  0  0  0  0  0  0  0  0  0  0
    8.2958   -5.2928    5.0003 H   0  0  0  0  0  0  0  0  0  0  0  0
    7.4030   -1.1204    3.3422 H   0  0  0  0  0  0  0  0  0  0  0  0
    4.8629   -2.6495    2.7920 H   0  0  0  0  0  0  0  0  0  0  0  0
    3.2073   -2.6157    2.1136 H   0  0  0  0  0  0  0  0  0  0  0  0
    0.9392   -2.4305    1.1385 H   0  0  0  0  0  0  0  0  0  0  0  0
    3.9630    1.5278    1.1300 H   0  0  0  0  0  0  0  0  0  0  0  0
   -0.5167    1.8131   -0.8945 H   0  0  0  0  0  0  0  0  0  0  0  0
   -0.4985    1.8036    0.9281 H   0  0  0  0  0  0  0  0  0  0  0  0
  1  2  1  0  0  0  0
  1 36  1  0  0  0  0
  1 37  1  0  0  0  0
  1 38  1  0  0  0  0
  2  7  2  0  0  0  0
  2  3  1  0  0  0  0
  3  4  2  0  0  0  0
  3 39  1  0  0  0  0
  4  5  1  0  0  0  0
  4 40  1  0  0  0  0
  5  6  2  0  0  0  0
  5 41  1  0  0  0  0
  6  7  1  0  0  0  0
  6  9  1  0  0  0  0
  7  8  1  0  0  0  0
  8 42  1  0  0  0  0
  8 43  1  0  0  0  0
  8 44  1  0  0  0  0
  9 19  1  0  0  0  0
  9 10  1  0  0  0  0
 10 11  1  0  0  0  0
 10 12  2  0  0  0  0
 11 45  1  0  0  0  0
 12 17  1  0  0  0  0
 12 13  1  0  0  0  0
 13 14  2  0  0  0  0
 13 46  1  0  0  0  0
 14 15  1  0  0  0  0
 14 47  1  0  0  0  0
 15 16  2  0  0  0  0
 15 21  1  0  0  0  0
 16 17  1  0  0  0  0
 16 48  1  0  0  0  0
 17 18  2  0  0  0  0
 18 19  1  0  0  0  0
 19 20  2  0  0  0  0
 21 22  2  0  0  0  0
 21 23  1  0  0  0  0
 23 24  1  0  0  0  0
 23 49  1  0  0  0  0
 24 25  1  0  0  0  0
 24 50  1  0  0  0  0
 25 26  2  0  0  0  0
 25 27  1  0  0  0  0
 27 32  2  0  0  0  0
 27 28  1  0  0  0  0
 28 29  2  0  0  0  0
 28 51  1  0  0  0  0
 29 30  1  0  0  0  0
 29 52  1  0  0  0  0
 30 35  1  0  0  0  0
 30 31  2  0  0  0  0
 31 32  1  0  0  0  0
 31 33  1  0  0  0  0
 32 53  1  0  0  0  0
 33 34  1  0  0  0  0
 34 35  1  0  0  0  0
 34 54  1  0  0  0  0
 34 55  1  0  0  0  0
M  END
>  <Name>
ZINC24759702

>  <reference>
BDB50233854

>  <quality>
0.803

>  <status>
decoy

$$$$
