BDB33240
 OpenBabel12222119243D

 43 45  0  0  0  0  0  0  0  0999 V2000
    1.1546   -0.8248   -0.0004 C   0  0  0  0  0  0  0  0  0  0  0  0
    1.1529    0.5115   -0.0003 N   0  0  0  0  0  0  0  0  0  0  0  0
    0.0296    1.2450   -0.0001 C   0  0  0  0  0  0  0  0  0  0  0  0
   -1.1764    0.6832   -0.0001 N   0  0  0  0  0  0  0  0  0  0  0  0
   -0.1134   -1.4124   -0.0003 C   0  0  0  0  0  0  0  0  0  0  0  0
   -0.4255   -2.7556   -0.0003 C   0  0  0  0  0  0  0  0  0  0  0  0
   -1.2533   -0.6321   -0.0001 C   0  0  0  0  0  0  0  0  0  0  0  0
   -2.6633   -1.5536   -0.0001 S   0  0  0  0  0  0  0  0  0  0  0  0
   -1.7907   -2.9902   -0.0003 C   0  0  0  0  0  0  0  0  0  0  0  0
    2.5670   -1.5706   -0.0006 C   0  0  0  0  0  0  0  0  0  0  0  0
    0.0992    2.6819    0.0000 N   0  0  0  0  0  0  0  0  0  0  0  0
   -2.3367   -4.3530   -0.0004 C   0  0  0  0  0  0  0  0  0  0  0  0
   -1.4379   -5.4443   -0.0006 N   0  0  0  0  0  0  0  0  0  0  0  0
   -3.5563   -4.5461   -0.0004 O   0  0  0  0  0  0  0  0  0  0  0  0
    5.2123   -2.5734   -0.0007 C   0  0  0  0  0  0  0  0  0  0  0  0
    4.1381   -3.4324   -0.0012 C   0  0  0  0  0  0  0  0  0  0  0  0
    2.8355   -2.9605   -0.0011 C   0  0  0  0  0  0  0  0  0  0  0  0
    3.6789   -0.7193   -0.0003 C   0  0  0  0  0  0  0  0  0  0  0  0
    4.9842   -1.2128   -0.0003 C   0  0  0  0  0  0  0  0  0  0  0  0
   -1.9078   -6.7922   -0.0009 C   0  0  0  0  0  0  0  0  0  0  0  0
    6.8149   -3.1960   -0.0008 Cl  0  0  0  0  0  0  0  0  0  0  0  0
    1.7260   -4.2433   -0.0018 Cl  0  0  0  0  0  0  0  0  0  0  0  0
    6.0983   -0.3982   -0.0001 O   0  0  0  0  0  0  0  0  0  0  0  0
    5.7935    0.9737    0.0001 C   0  0  0  0  0  0  0  0  0  0  0  0
    7.1064    1.7038   -0.0001 C   0  0  0  0  0  0  0  0  0  0  0  0
    8.3172    0.9815   -0.0003 N   0  0  0  0  0  0  0  0  0  0  0  0
   -0.6855   -7.7378   -0.0011 C   0  0  0  0  0  0  0  0  0  0  0  0
    7.1261    2.9384   -0.0003 O   0  0  0  0  0  0  0  0  0  0  0  0
    0.3088   -3.5339   -0.0004 H   0  0  0  0  0  0  0  0  0  0  0  0
    1.0088    3.1587    0.0000 H   0  0  0  0  0  0  0  0  0  0  0  0
   -0.7745    3.2380    0.0002 H   0  0  0  0  0  0  0  0  0  0  0  0
   -0.4672   -5.2804   -0.0006 H   0  0  0  0  0  0  0  0  0  0  0  0
    4.3122   -4.4882   -0.0015 H   0  0  0  0  0  0  0  0  0  0  0  0
    3.5233    0.3394    0.0001 H   0  0  0  0  0  0  0  0  0  0  0  0
   -2.4929   -6.9674   -0.8739 H   0  0  0  0  0  0  0  0  0  0  0  0
   -2.4941   -6.9673    0.8747 H   0  0  0  0  0  0  0  0  0  0  0  0
    5.2495    1.2208    0.8732 H   0  0  0  0  0  0  0  0  0  0  0  0
    5.2479    1.2208   -0.8755 H   0  0  0  0  0  0  0  0  0  0  0  0
    8.3105   -0.0156   -0.0002 H   0  0  0  0  0  0  0  0  0  0  0  0
    9.1840    1.4677   -0.0005 H   0  0  0  0  0  0  0  0  0  0  0  0
   -0.0939   -7.5708    0.8721 H   0  0  0  0  0  0  0  0  0  0  0  0
   -0.0939   -7.5705   -0.8741 H   0  0  0  0  0  0  0  0  0  0  0  0
   -1.0298   -8.7622   -0.0013 H   0  0  0  0  0  0  0  0  0  0  0  0
  1  2  1  0  0  0  0
  1  5  2  0  0  0  0
  1 10  1  0  0  0  0
  2  3  2  0  0  0  0
  3  4  1  0  0  0  0
  3 11  1  0  0  0  0
  4  7  2  0  0  0  0
  5  7  1  0  0  0  0
  6  5  1  0  0  0  0
  6  9  2  0  0  0  0
  6 29  1  0  0  0  0
  7  8  1  0  0  0  0
  8  9  1  0  0  0  0
  9 12  1  0  0  0  0
 10 18  1  0  0  0  0
 11 30  1  0  0  0  0
 11 31  1  0  0  0  0
 12 13  1  0  0  0  0
 12 14  2  0  0  0  0
 13 20  1  0  0  0  0
 13 32  1  0  0  0  0
 15 16  2  0  0  0  0
 15 19  1  0  0  0  0
 15 21  1  0  0  0  0
 16 17  1  0  0  0  0
 16 33  1  0  0  0  0
 17 10  2  0  0  0  0
 17 22  1  0  0  0  0
 18 19  2  0  0  0  0
 18 34  1  0  0  0  0
 19 23  1  0  0  0  0
 20 27  1  0  0  0  0
 20 35  1  0  0  0  0
 20 36  1  0  0  0  0
 23 24  1  0  0  0  0
 24 25  1  0  0  0  0
 24 37  1  0  0  0  0
 24 38  1  0  0  0  0
 25 26  1  0  0  0  0
 25 28  2  0  0  0  0
 26 39  1  0  0  0  0
 26 40  1  0  0  0  0
 27 41  1  0  0  0  0
 27 42  1  0  0  0  0
 27 43  1  0  0  0  0
M  END
>  <Name>
BDB33240

>  <Target>
Heat Shock Protein 90 (Hsp90)

>  <IC50_in_nM>
29

>  <Kd_from_ITC>
false

>  <Uniprot_ID>
P08238

>  <source_organism>
Homo sapiens (human)

>  <SourceTag>
HSP90

$$$$
