BDB20739
 OpenBabel12222119243D

 47 50  0  0  0  0  0  0  0  0999 V2000
    1.2348   -0.7342   -0.0003 C   0  0  0  0  0  0  0  0  0  0  0  0
    1.2126    0.6604   -0.0001 C   0  0  0  0  0  0  0  0  0  0  0  0
   -0.0003    1.3598    0.0001 C   0  0  0  0  0  0  0  0  0  0  0  0
   -1.2270    0.6948    0.0001 C   0  0  0  0  0  0  0  0  0  0  0  0
    0.0011   -1.3609   -0.0003 C   0  0  0  0  0  0  0  0  0  0  0  0
   -0.3624   -2.6850   -0.0005 C   0  0  0  0  0  0  0  0  0  0  0  0
   -1.1838   -0.6890   -0.0001 C   0  0  0  0  0  0  0  0  0  0  0  0
   -2.1549   -1.5484   -0.0001 O   0  0  0  0  0  0  0  0  0  0  0  0
   -1.6970   -2.7100   -0.0003 N   0  0  0  0  0  0  0  0  0  0  0  0
    0.5338   -3.8412   -0.0007 C   0  0  0  0  0  0  0  0  0  0  0  0
    2.7604   -4.7538   -0.0010 C   0  0  0  0  0  0  0  0  0  0  0  0
    1.9108   -3.6543   -0.0008 C   0  0  0  0  0  0  0  0  0  0  0  0
    0.0070   -5.1272   -0.0008 C   0  0  0  0  0  0  0  0  0  0  0  0
    0.8569   -6.2270   -0.0010 C   0  0  0  0  0  0  0  0  0  0  0  0
    2.2341   -6.0399   -0.0011 C   0  0  0  0  0  0  0  0  0  0  0  0
    2.4481    1.3889   -0.0001 N   0  0  0  0  0  0  0  0  0  0  0  0
    3.5958    0.4668   -0.0003 C   0  0  0  0  0  0  0  0  0  0  0  0
    4.9033    1.2856   -0.0002 C   0  0  0  0  0  0  0  0  0  0  0  0
    6.0473   -0.4649    1.1963 C   0  0  0  0  0  0  0  0  0  0  0  0
    7.2725   -1.3990    1.1753 C   0  0  0  0  0  0  0  0  0  0  0  0
    7.2729   -1.3977   -1.1765 C   0  0  0  0  0  0  0  0  0  0  0  0
    6.0473   -0.4644   -1.1974 C   0  0  0  0  0  0  0  0  0  0  0  0
    6.0698    0.3845   -0.0004 N   0  0  0  0  0  0  0  0  0  0  0  0
    7.2329   -2.2194   -0.0010 O   0  0  0  0  0  0  0  0  0  0  0  0
   -1.3691   -5.3127   -0.0008 O   0  0  0  0  0  0  0  0  0  0  0  0
    3.0849   -7.1373   -0.0013 O   0  0  0  0  0  0  0  0  0  0  0  0
    4.4616   -4.5223   -0.0011 Cl  0  0  0  0  0  0  0  0  0  0  0  0
    2.1769   -1.3020   -0.0005 H   0  0  0  0  0  0  0  0  0  0  0  0
    0.0142    2.4597    0.0002 H   0  0  0  0  0  0  0  0  0  0  0  0
   -2.1809    1.2427    0.0002 H   0  0  0  0  0  0  0  0  0  0  0  0
    2.3280   -2.6365   -0.0007 H   0  0  0  0  0  0  0  0  0  0  0  0
    0.4398   -7.2448   -0.0011 H   0  0  0  0  0  0  0  0  0  0  0  0
    2.5223    2.4162    0.0000 H   0  0  0  0  0  0  0  0  0  0  0  0
    3.5592   -0.1660    0.8987 H   0  0  0  0  0  0  0  0  0  0  0  0
    3.5598   -0.1663   -0.8991 H   0  0  0  0  0  0  0  0  0  0  0  0
    4.9360    1.9228    0.8959 H   0  0  0  0  0  0  0  0  0  0  0  0
    4.9352    1.9225   -0.8965 H   0  0  0  0  0  0  0  0  0  0  0  0
    6.0828    0.1666    2.0963 H   0  0  0  0  0  0  0  0  0  0  0  0
    5.1270   -1.0673    1.2037 H   0  0  0  0  0  0  0  0  0  0  0  0
    7.2609   -2.0404    2.0688 H   0  0  0  0  0  0  0  0  0  0  0  0
    8.1927   -0.7963    1.1700 H   0  0  0  0  0  0  0  0  0  0  0  0
    7.2612   -2.0366   -2.0719 H   0  0  0  0  0  0  0  0  0  0  0  0
    8.1924   -0.7940   -1.1704 H   0  0  0  0  0  0  0  0  0  0  0  0
    6.0822    0.1666   -2.0978 H   0  0  0  0  0  0  0  0  0  0  0  0
    5.1271   -1.0671   -1.2038 H   0  0  0  0  0  0  0  0  0  0  0  0
   -1.6932   -4.8217   -0.7970 H   0  0  0  0  0  0  0  0  0  0  0  0
    3.6604   -7.0148    0.7950 H   0  0  0  0  0  0  0  0  0  0  0  0
  1  2  1  0  0  0  0
  1  5  2  0  0  0  0
  1 28  1  0  0  0  0
  2  3  2  0  0  0  0
  2 16  1  0  0  0  0
  3  4  1  0  0  0  0
  3 29  1  0  0  0  0
  4  7  2  0  0  0  0
  4 30  1  0  0  0  0
  5  7  1  0  0  0  0
  6  5  1  0  0  0  0
  6  9  2  0  0  0  0
  6 10  1  0  0  0  0
  7  8  1  0  0  0  0
  8  9  1  0  0  0  0
 10 13  1  0  0  0  0
 11 12  1  0  0  0  0
 11 15  2  0  0  0  0
 11 27  1  0  0  0  0
 12 10  2  0  0  0  0
 12 31  1  0  0  0  0
 13 14  2  0  0  0  0
 13 25  1  0  0  0  0
 14 15  1  0  0  0  0
 14 32  1  0  0  0  0
 15 26  1  0  0  0  0
 16 17  1  0  0  0  0
 16 33  1  0  0  0  0
 17 18  1  0  0  0  0
 17 34  1  0  0  0  0
 17 35  1  0  0  0  0
 18 23  1  0  0  0  0
 18 36  1  0  0  0  0
 18 37  1  0  0  0  0
 19 23  1  0  0  0  0
 19 20  1  0  0  0  0
 19 38  1  0  0  0  0
 19 39  1  0  0  0  0
 20 24  1  0  0  0  0
 20 40  1  0  0  0  0
 20 41  1  0  0  0  0
 21 22  1  0  0  0  0
 21 42  1  0  0  0  0
 21 43  1  0  0  0  0
 22 23  1  0  0  0  0
 22 44  1  0  0  0  0
 22 45  1  0  0  0  0
 24 21  1  0  0  0  0
 25 46  1  0  0  0  0
 26 47  1  0  0  0  0
M  END
>  <Name>
BDB20739

>  <Target>
Heat Shock Protein 90 (Hsp90)

>  <IC50_in_nM>
30

>  <Kd_from_ITC>
false

>  <Uniprot_ID>
P07900

>  <source_organism>
Homo sapiens (human)

>  <SourceTag>
HSP90

$$$$
