BDB33246
 OpenBabel12222119243D

 57 60  0  0  0  0  0  0  0  0999 V2000
    1.1543   -0.8255   -0.0004 C   0  0  0  0  0  0  0  0  0  0  0  0
    1.1544    0.5120   -0.0003 N   0  0  0  0  0  0  0  0  0  0  0  0
    0.0312    1.2459   -0.0001 C   0  0  0  0  0  0  0  0  0  0  0  0
   -1.1750    0.6856    0.0000 N   0  0  0  0  0  0  0  0  0  0  0  0
   -0.1133   -1.4102   -0.0003 C   0  0  0  0  0  0  0  0  0  0  0  0
   -0.4274   -2.7543   -0.0004 C   0  0  0  0  0  0  0  0  0  0  0  0
   -1.2538   -0.6307   -0.0001 C   0  0  0  0  0  0  0  0  0  0  0  0
   -2.6637   -1.5508   -0.0001 S   0  0  0  0  0  0  0  0  0  0  0  0
   -1.7920   -2.9883   -0.0003 C   0  0  0  0  0  0  0  0  0  0  0  0
    2.5672   -1.5738   -0.0007 C   0  0  0  0  0  0  0  0  0  0  0  0
    0.1024    2.6834    0.0001 N   0  0  0  0  0  0  0  0  0  0  0  0
   -2.3381   -4.3520   -0.0004 C   0  0  0  0  0  0  0  0  0  0  0  0
   -1.4389   -5.4435   -0.0008 N   0  0  0  0  0  0  0  0  0  0  0  0
   -3.5577   -4.5455   -0.0003 O   0  0  0  0  0  0  0  0  0  0  0  0
    5.2089   -2.5877   -0.0008 C   0  0  0  0  0  0  0  0  0  0  0  0
    4.1317   -3.4422   -0.0012 C   0  0  0  0  0  0  0  0  0  0  0  0
    2.8313   -2.9653   -0.0011 C   0  0  0  0  0  0  0  0  0  0  0  0
    3.6822   -0.7272   -0.0004 C   0  0  0  0  0  0  0  0  0  0  0  0
    4.9858   -1.2268   -0.0005 C   0  0  0  0  0  0  0  0  0  0  0  0
   -1.9082   -6.7918   -0.0010 C   0  0  0  0  0  0  0  0  0  0  0  0
    6.8092   -3.2145   -0.0008 Cl  0  0  0  0  0  0  0  0  0  0  0  0
    1.7198   -4.2450   -0.0017 Cl  0  0  0  0  0  0  0  0  0  0  0  0
    6.1038   -0.4206   -0.0003 O   0  0  0  0  0  0  0  0  0  0  0  0
    5.7996    0.9440   -0.0001 C   0  0  0  0  0  0  0  0  0  0  0  0
   -0.6853   -7.7370   -0.0013 C   0  0  0  0  0  0  0  0  0  0  0  0
    7.1482    1.6761    0.0006 C   0  0  0  0  0  0  0  0  0  0  0  0
    6.9193    3.1052    0.0008 N   0  0  0  0  0  0  0  0  0  0  0  0
    5.1398    5.3794    0.0000 C   0  0  0  0  0  0  0  0  0  0  0  0
    5.9303    4.9738    1.2485 C   0  0  0  0  0  0  0  0  0  0  0  0
    6.1599    3.4594    1.2119 C   0  0  0  0  0  0  0  0  0  0  0  0
    6.1618    3.4600   -1.2113 C   0  0  0  0  0  0  0  0  0  0  0  0
    5.9323    4.9744   -1.2476 C   0  0  0  0  0  0  0  0  0  0  0  0
    4.9423    6.7418    0.0002 F   0  0  0  0  0  0  0  0  0  0  0  0
    3.9221    4.7300   -0.0012 F   0  0  0  0  0  0  0  0  0  0  0  0
    0.3063   -3.5332   -0.0005 H   0  0  0  0  0  0  0  0  0  0  0  0
    1.0127    3.1598    0.0001 H   0  0  0  0  0  0  0  0  0  0  0  0
   -0.7711    3.2403    0.0003 H   0  0  0  0  0  0  0  0  0  0  0  0
   -0.4686   -5.2795   -0.0008 H   0  0  0  0  0  0  0  0  0  0  0  0
    4.3018   -4.4986   -0.0014 H   0  0  0  0  0  0  0  0  0  0  0  0
    3.5311    0.3321   -0.0001 H   0  0  0  0  0  0  0  0  0  0  0  0
   -2.4934   -6.9672   -0.8739 H   0  0  0  0  0  0  0  0  0  0  0  0
   -2.4943   -6.9672    0.8747 H   0  0  0  0  0  0  0  0  0  0  0  0
    5.2601    1.1927   -0.8760 H   0  0  0  0  0  0  0  0  0  0  0  0
    5.2606    1.1925    0.8727 H   0  0  0  0  0  0  0  0  0  0  0  0
   -0.0937   -7.5698    0.8718 H   0  0  0  0  0  0  0  0  0  0  0  0
   -0.0939   -7.5694   -0.8745 H   0  0  0  0  0  0  0  0  0  0  0  0
   -1.0292   -8.7615   -0.0015 H   0  0  0  0  0  0  0  0  0  0  0  0
    7.7028    1.4047   -0.8721 H   0  0  0  0  0  0  0  0  0  0  0  0
    7.7026    1.4034    0.8766 H   0  0  0  0  0  0  0  0  0  0  0  0
    5.3749    5.2284    2.1218 H   0  0  0  0  0  0  0  0  0  0  0  0
    6.8727    5.4776    1.2545 H   0  0  0  0  0  0  0  0  0  0  0  0
    6.7111    3.1622    2.0791 H   0  0  0  0  0  0  0  0  0  0  0  0
    5.2134    2.9552    1.2006 H   0  0  0  0  0  0  0  0  0  0  0  0
    6.7166    3.1624   -2.0796 H   0  0  0  0  0  0  0  0  0  0  0  0
    5.2176    2.9574   -1.2028 H   0  0  0  0  0  0  0  0  0  0  0  0
    5.3759    5.2303   -2.1234 H   0  0  0  0  0  0  0  0  0  0  0  0
    6.8723    5.4767   -1.2528 H   0  0  0  0  0  0  0  0  0  0  0  0
  1  2  1  0  0  0  0
  1  5  2  0  0  0  0
  1 10  1  0  0  0  0
  2  3  2  0  0  0  0
  3  4  1  0  0  0  0
  3 11  1  0  0  0  0
  4  7  2  0  0  0  0
  5  7  1  0  0  0  0
  6  5  1  0  0  0  0
  6  9  2  0  0  0  0
  6 35  1  0  0  0  0
  7  8  1  0  0  0  0
  8  9  1  0  0  0  0
  9 12  1  0  0  0  0
 10 18  1  0  0  0  0
 11 36  1  0  0  0  0
 11 37  1  0  0  0  0
 12 13  1  0  0  0  0
 12 14  2  0  0  0  0
 13 20  1  0  0  0  0
 13 38  1  0  0  0  0
 15 16  2  0  0  0  0
 15 19  1  0  0  0  0
 15 21  1  0  0  0  0
 16 17  1  0  0  0  0
 16 39  1  0  0  0  0
 17 10  2  0  0  0  0
 17 22  1  0  0  0  0
 18 19  2  0  0  0  0
 18 40  1  0  0  0  0
 19 23  1  0  0  0  0
 20 25  1  0  0  0  0
 20 41  1  0  0  0  0
 20 42  1  0  0  0  0
 23 24  1  0  0  0  0
 24 26  1  0  0  0  0
 24 43  1  0  0  0  0
 24 44  1  0  0  0  0
 25 45  1  0  0  0  0
 25 46  1  0  0  0  0
 25 47  1  0  0  0  0
 26 27  1  0  0  0  0
 26 48  1  0  0  0  0
 26 49  1  0  0  0  0
 27 31  1  0  0  0  0
 28 29  1  0  0  0  0
 28 32  1  0  0  0  0
 28 33  1  0  0  0  0
 28 34  1  0  0  0  0
 29 30  1  0  0  0  0
 29 50  1  0  0  0  0
 29 51  1  0  0  0  0
 30 27  1  0  0  0  0
 30 52  1  0  0  0  0
 30 53  1  0  0  0  0
 31 32  1  0  0  0  0
 31 54  1  0  0  0  0
 31 55  1  0  0  0  0
 32 56  1  0  0  0  0
 32 57  1  0  0  0  0
M  END
>  <Name>
BDB33246

>  <Target>
Heat Shock Protein 90 (Hsp90)

>  <IC50_in_nM>
58

>  <Kd_from_ITC>
false

>  <Uniprot_ID>
P08238

>  <source_organism>
Homo sapiens (human)

>  <SourceTag>
HSP90

$$$$
