BDB50180302
 OpenBabel12222119243D

 50 53  0  0  0  0  0  0  0  0999 V2000
    1.1475   -0.6727   -0.0002 N   0  0  0  0  0  0  0  0  0  0  0  0
    1.1351    0.6667    0.0000 C   0  0  0  0  0  0  0  0  0  0  0  0
    0.0039    1.3756    0.0001 N   0  0  0  0  0  0  0  0  0  0  0  0
    0.0191   -1.3797   -0.0004 C   0  0  0  0  0  0  0  0  0  0  0  0
   -1.1616   -0.6641   -0.0002 C   0  0  0  0  0  0  0  0  0  0  0  0
   -1.1335    0.7024    0.0000 C   0  0  0  0  0  0  0  0  0  0  0  0
   -2.3847    1.1179    0.0000 N   0  0  0  0  0  0  0  0  0  0  0  0
   -3.1602    0.0345   -0.0001 C   0  0  0  0  0  0  0  0  0  0  0  0
   -2.4219   -1.0810   -0.0003 N   0  0  0  0  0  0  0  0  0  0  0  0
    0.0296   -2.8076   -0.0006 N   0  0  0  0  0  0  0  0  0  0  0  0
   -4.9370    0.0662   -0.0002 S   0  0  0  0  0  0  0  0  0  0  0  0
   -2.8303    2.4826    0.0003 C   0  0  0  0  0  0  0  0  0  0  0  0
   -4.3718    2.5527    0.0171 C   0  0  0  0  0  0  0  0  0  0  0  0
   -4.8115    4.0283    0.0062 C   0  0  0  0  0  0  0  0  0  0  0  0
   -6.2800    4.1096    0.0131 N   0  3  0  0  0  0  0  0  0  0  0  0
   -6.6965    5.5218   -0.0185 C   0  0  0  0  0  0  0  0  0  0  0  0
   -8.2337    5.6050   -0.0406 C   0  0  0  0  0  0  0  0  0  0  0  0
   -6.1612    6.2520    1.2291 C   0  0  0  0  0  0  0  0  0  0  0  0
   -5.6707   -1.5610    0.0001 C   0  0  0  0  0  0  0  0  0  0  0  0
   -7.0621   -1.6702    0.0004 C   0  0  0  0  0  0  0  0  0  0  0  0
   -7.6762   -2.9199    0.0006 C   0  0  0  0  0  0  0  0  0  0  0  0
   -4.8720   -2.7025   -0.0001 C   0  0  0  0  0  0  0  0  0  0  0  0
   -5.4997   -3.9389    0.0001 C   0  0  0  0  0  0  0  0  0  0  0  0
   -6.8656   -4.0447    0.0004 C   0  0  0  0  0  0  0  0  0  0  0  0
   -7.2936   -5.3379    0.0005 O   0  0  0  0  0  0  0  0  0  0  0  0
   -6.0195   -6.1078    0.0003 C   0  0  0  0  0  0  0  0  0  0  0  0
   -4.8783   -5.1514    0.0000 O   0  0  0  0  0  0  0  0  0  0  0  0
   -8.2128    0.0331    0.0006 I   0  0  0  0  0  0  0  0  0  0  0  0
    2.0950    1.2038    0.0002 H   0  0  0  0  0  0  0  0  0  0  0  0
   -0.8691   -3.3109   -0.0007 H   0  0  0  0  0  0  0  0  0  0  0  0
    0.9183   -3.3284   -0.0007 H   0  0  0  0  0  0  0  0  0  0  0  0
   -2.4336    2.9941    0.8896 H   0  0  0  0  0  0  0  0  0  0  0  0
   -2.4535    2.9889   -0.9006 H   0  0  0  0  0  0  0  0  0  0  0  0
   -4.7513    2.0628    0.9259 H   0  0  0  0  0  0  0  0  0  0  0  0
   -4.7716    2.0425   -0.8716 H   0  0  0  0  0  0  0  0  0  0  0  0
   -4.4133    4.5356    0.8974 H   0  0  0  0  0  0  0  0  0  0  0  0
   -4.4228    4.5206   -0.8974 H   0  0  0  0  0  0  0  0  0  0  0  0
   -6.6453    3.6639    0.8668 H   0  0  0  0  0  0  0  0  0  0  0  0
   -6.6544    3.6234   -0.8141 H   0  0  0  0  0  0  0  0  0  0  0  0
   -6.2890    5.9990   -0.9220 H   0  0  0  0  0  0  0  0  0  0  0  0
   -8.6404    5.1235    0.8610 H   0  0  0  0  0  0  0  0  0  0  0  0
   -8.6164    5.0904   -0.9343 H   0  0  0  0  0  0  0  0  0  0  0  0
   -8.5447    6.6598   -0.0642 H   0  0  0  0  0  0  0  0  0  0  0  0
   -5.0628    6.1944    1.2426 H   0  0  0  0  0  0  0  0  0  0  0  0
   -6.5629    5.7718    2.1336 H   0  0  0  0  0  0  0  0  0  0  0  0
   -6.4737    7.3063    1.2030 H   0  0  0  0  0  0  0  0  0  0  0  0
   -8.7723   -3.0120    0.0008 H   0  0  0  0  0  0  0  0  0  0  0  0
   -3.7747   -2.6252   -0.0003 H   0  0  0  0  0  0  0  0  0  0  0  0
   -5.9699   -6.7392   -0.8991 H   0  0  0  0  0  0  0  0  0  0  0  0
   -5.9702   -6.7386    0.9000 H   0  0  0  0  0  0  0  0  0  0  0  0
  1  2  2  0  0  0  0
  2  3  1  0  0  0  0
  2 29  1  0  0  0  0
  3  6  2  0  0  0  0
  4  1  1  0  0  0  0
  4 10  1  0  0  0  0
  5  4  2  0  0  0  0
  5  6  1  0  0  0  0
  6  7  1  0  0  0  0
  7  8  1  0  0  0  0
  7 12  1  0  0  0  0
  8  9  2  0  0  0  0
  8 11  1  0  0  0  0
  9  5  1  0  0  0  0
 10 30  1  0  0  0  0
 10 31  1  0  0  0  0
 11 19  1  0  0  0  0
 12 13  1  0  0  0  0
 12 32  1  0  0  0  0
 12 33  1  0  0  0  0
 13 14  1  0  0  0  0
 13 34  1  0  0  0  0
 13 35  1  0  0  0  0
 14 15  1  0  0  0  0
 14 36  1  0  0  0  0
 14 37  1  0  0  0  0
 15 16  1  0  0  0  0
 15 38  1  0  0  0  0
 15 39  1  0  0  0  0
 16 17  1  0  0  0  0
 16 18  1  0  0  0  0
 16 40  1  0  0  0  0
 17 41  1  0  0  0  0
 17 42  1  0  0  0  0
 17 43  1  0  0  0  0
 18 44  1  0  0  0  0
 18 45  1  0  0  0  0
 18 46  1  0  0  0  0
 19 20  2  0  0  0  0
 20 21  1  0  0  0  0
 20 28  1  0  0  0  0
 21 24  2  0  0  0  0
 21 47  1  0  0  0  0
 22 19  1  0  0  0  0
 22 48  1  0  0  0  0
 23 22  2  0  0  0  0
 23 24  1  0  0  0  0
 24 25  1  0  0  0  0
 25 26  1  0  0  0  0
 26 27  1  0  0  0  0
 26 49  1  0  0  0  0
 26 50  1  0  0  0  0
 27 23  1  0  0  0  0
M  CHG  1  15   1
M  END
>  <Name>
BDB50180302

>  <Target>
Heat Shock Protein 90 (Hsp90)

>  <IC50_in_nM>
50

>  <Kd_from_ITC>
false

>  <Uniprot_ID>
P08238

>  <source_organism>
Homo sapiens

>  <SourceTag>
HSP90

$$$$
