BDB20885
 OpenBabel12222119243D

 59 61  0  0  0  0  0  0  0  0999 V2000
    1.2556   -0.3081   -0.0108 C   0  0  0  0  0  0  0  0  0  0  0  0
    1.1333    1.0592   -0.1901 C   0  0  0  0  0  0  0  0  0  0  0  0
   -0.1400    1.6165   -0.2592 C   0  0  0  0  0  0  0  0  0  0  0  0
   -1.2821    0.8197   -0.1760 C   0  0  0  0  0  0  0  0  0  0  0  0
   -1.1681   -0.5633   -0.0245 C   0  0  0  0  0  0  0  0  0  0  0  0
    0.1108   -1.0759    0.0709 C   0  0  0  0  0  0  0  0  0  0  0  0
    2.2693    1.8601   -0.3039 O   0  0  0  0  0  0  0  0  0  0  0  0
   -2.5273    1.4244   -0.2486 O   0  0  0  0  0  0  0  0  0  0  0  0
   -2.4270   -1.4732    0.0118 C   0  0  0  0  0  0  0  0  0  0  0  0
   -2.5734   -2.8788    0.0218 C   0  0  0  0  0  0  0  0  0  0  0  0
   -3.9582   -3.0632    0.0245 C   0  0  0  0  0  0  0  0  0  0  0  0
   -4.5158   -1.8610    0.0244 N   0  0  0  0  0  0  0  0  0  0  0  0
   -3.6459   -0.9386    0.0098 N   0  0  0  0  0  0  0  0  0  0  0  0
    2.7936   -1.0867    0.0834 Cl  0  0  0  0  0  0  0  0  0  0  0  0
   -1.4798   -4.0091    0.0091 C   0  0  0  0  0  0  0  0  0  0  0  0
    0.5357   -5.9847   -0.0117 C   0  0  0  0  0  0  0  0  0  0  0  0
    0.8655   -4.6461   -0.0687 C   0  0  0  0  0  0  0  0  0  0  0  0
   -0.1366   -3.6985   -0.0616 C   0  0  0  0  0  0  0  0  0  0  0  0
   -1.7907   -5.3645    0.0630 C   0  0  0  0  0  0  0  0  0  0  0  0
   -0.8032   -6.3477    0.0510 C   0  0  0  0  0  0  0  0  0  0  0  0
    1.6329   -6.9947   -0.0158 C   0  0  0  0  0  0  0  0  0  0  0  0
    2.9272   -6.2733    0.0283 N   0  3  0  0  0  0  0  0  0  0  0  0
    4.0150   -7.2321    0.0194 C   0  0  0  0  0  0  0  0  0  0  0  0
   -4.7718   -4.3318    0.0148 C   0  0  0  0  0  0  0  0  0  0  0  0
   -4.2601   -5.4473   -0.0020 O   0  0  0  0  0  0  0  0  0  0  0  0
   -6.1585   -4.2828    0.0073 N   0  0  0  0  0  0  0  0  0  0  0  0
   -6.8891   -5.5216   -0.0119 C   0  0  0  0  0  0  0  0  0  0  0  0
   -8.3995   -5.2495   -0.0018 C   0  0  0  0  0  0  0  0  0  0  0  0
    5.3481   -6.4782    0.0665 C   0  0  0  0  0  0  0  0  0  0  0  0
    6.4900   -8.8071    1.4365 C   0  0  0  0  0  0  0  0  0  0  0  0
    6.6678   -7.6976    0.0193 S   0  0  0  0  0  0  0  0  0  0  0  0
    8.0144   -7.0022    0.0762 O   0  0  0  0  0  0  0  0  0  0  0  0
    6.5567   -8.4947   -1.2663 O   0  0  0  0  0  0  0  0  0  0  0  0
   -0.2449    2.6747   -0.3783 H   0  0  0  0  0  0  0  0  0  0  0  0
    0.2209   -2.1302    0.2166 H   0  0  0  0  0  0  0  0  0  0  0  0
    3.0845    1.3015   -0.2423 H   0  0  0  0  0  0  0  0  0  0  0  0
   -2.4058    2.4037   -0.3539 H   0  0  0  0  0  0  0  0  0  0  0  0
   -5.4976   -1.7007    0.0224 H   0  0  0  0  0  0  0  0  0  0  0  0
    1.8912   -4.3454   -0.1179 H   0  0  0  0  0  0  0  0  0  0  0  0
    0.1421   -2.6668   -0.1138 H   0  0  0  0  0  0  0  0  0  0  0  0
   -2.8177   -5.6603    0.1151 H   0  0  0  0  0  0  0  0  0  0  0  0
   -1.0764   -7.3815    0.0900 H   0  0  0  0  0  0  0  0  0  0  0  0
    1.5446   -7.6225    0.8426 H   0  0  0  0  0  0  0  0  0  0  0  0
    1.5800   -7.5769   -0.9052 H   0  0  0  0  0  0  0  0  0  0  0  0
    3.0188   -5.6597   -0.7973 H   0  0  0  0  0  0  0  0  0  0  0  0
    2.9837   -5.7057    0.8899 H   0  0  0  0  0  0  0  0  0  0  0  0
    3.9359   -7.8709    0.8749 H   0  0  0  0  0  0  0  0  0  0  0  0
    3.9688   -7.8173   -0.8726 H   0  0  0  0  0  0  0  0  0  0  0  0
   -6.6373   -3.4143    0.0115 H   0  0  0  0  0  0  0  0  0  0  0  0
   -6.6269   -6.1040    0.8500 H   0  0  0  0  0  0  0  0  0  0  0  0
   -6.6321   -6.0738   -0.8984 H   0  0  0  0  0  0  0  0  0  0  0  0
   -8.6569   -4.6682   -0.8639 H   0  0  0  0  0  0  0  0  0  0  0  0
   -8.6507   -4.6989    0.8821 H   0  0  0  0  0  0  0  0  0  0  0  0
   -8.9336   -6.1724   -0.0162 H   0  0  0  0  0  0  0  0  0  0  0  0
    5.4275   -5.8366   -0.7790 H   0  0  0  0  0  0  0  0  0  0  0  0
    5.4135   -5.9211    0.9676 H   0  0  0  0  0  0  0  0  0  0  0  0
    5.5470   -9.3067    1.3909 H   0  0  0  0  0  0  0  0  0  0  0  0
    6.5578   -8.2497    2.3452 H   0  0  0  0  0  0  0  0  0  0  0  0
    7.2796   -9.5424    1.4146 H   0  0  0  0  0  0  0  0  0  0  0  0
  1  2  2  0  0  0  0
  1  6  1  0  0  0  0
  1 14  1  0  0  0  0
  2  3  1  0  0  0  0
  2  7  1  0  0  0  0
  3  4  2  0  0  0  0
  3 34  1  0  0  0  0
  4  5  1  0  0  0  0
  4  8  1  0  0  0  0
  5  6  2  0  0  0  0
  5  9  1  0  0  0  0
  6 35  1  0  0  0  0
  7 36  1  0  0  0  0
  8 37  1  0  0  0  0
  9 13  2  0  0  0  0
 10  9  1  0  0  0  0
 10 11  2  0  0  0  0
 10 15  1  0  0  0  0
 11 24  1  0  0  0  0
 12 11  1  0  0  0  0
 12 38  1  0  0  0  0
 13 12  1  0  0  0  0
 15 19  1  0  0  0  0
 16 17  2  0  0  0  0
 16 20  1  0  0  0  0
 16 21  1  0  0  0  0
 17 18  1  0  0  0  0
 17 39  1  0  0  0  0
 18 15  2  0  0  0  0
 18 40  1  0  0  0  0
 19 20  2  0  0  0  0
 19 41  1  0  0  0  0
 20 42  1  0  0  0  0
 21 22  1  0  0  0  0
 21 43  1  0  0  0  0
 21 44  1  0  0  0  0
 22 23  1  0  0  0  0
 22 45  1  0  0  0  0
 22 46  1  0  0  0  0
 23 29  1  0  0  0  0
 23 47  1  0  0  0  0
 23 48  1  0  0  0  0
 24 25  2  0  0  0  0
 24 26  1  0  0  0  0
 26 27  1  0  0  0  0
 26 49  1  0  0  0  0
 27 28  1  0  0  0  0
 27 50  1  0  0  0  0
 27 51  1  0  0  0  0
 28 52  1  0  0  0  0
 28 53  1  0  0  0  0
 28 54  1  0  0  0  0
 29 31  1  0  0  0  0
 29 55  1  0  0  0  0
 29 56  1  0  0  0  0
 30 57  1  0  0  0  0
 30 58  1  0  0  0  0
 30 59  1  0  0  0  0
 31 30  1  0  0  0  0
 31 32  2  0  0  0  0
 31 33  2  0  0  0  0
M  CHG  1  22   1
M  END
>  <Name>
BDB20885

>  <Target>
Heat Shock Protein 90 (Hsp90)

>  <IC50_in_nM>
35

>  <Kd_from_ITC>
false

>  <Uniprot_ID>
P08238

>  <source_organism>
Homo sapiens (human)

>  <SourceTag>
HSP90

$$$$
