# created with PyMOL 2.5.0
@<TRIPOS>MOLECULE
MOL
56 60 1                 
SMALL
USER_CHARGES
@<TRIPOS>ATOM
1	 H17	4.490	3.080	20.180	 H	1	UNK0	0.000	
2	 H19	5.720	0.660	16.760	 H	1	UNK0	0.000	
3	 H16	1.340	-6.010	24.360	 H	1	UNK0	0.000	
4	 H10	0.570	-6.000	21.450	 H	1	UNK0	0.000	
5	 H06	3.910	-0.960	24.530	 H	1	UNK0	0.000	
6	 H20	8.940	2.310	20.220	 H	1	UNK0	0.000	
7	 H21	7.350	-0.970	16.020	 H	1	UNK0	0.000	
8	 H22	11.230	-1.210	17.910	 H	1	UNK0	0.000	
9	 H07	3.140	-3.300	24.630	 H	1	UNK0	0.000	
10	 H02	2.790	3.640	22.250	 H	1	UNK0	0.000	
11	 H05	1.860	1.850	23.460	 H	1	UNK0	0.000	
12	 H04	3.250	1.690	24.500	 H	1	UNK0	0.000	
13	 H15	-0.410	-3.710	24.570	 H	1	UNK0	0.000	
14	 H03	3.770	3.830	23.680	 H	1	UNK0	0.000	
15	 H01	5.670	2.840	22.700	 H	1	UNK0	0.000	
16	 H09	2.540	-5.260	22.550	 H	1	UNK0	0.000	
17	 H08	1.220	-2.860	20.810	 H	1	UNK0	0.000	
18	 H11	0.450	-4.300	21.060	 H	1	UNK0	0.000	
19	 H14	-0.780	-5.400	24.880	 H	1	UNK0	0.000	
20	 H13	-1.330	-3.980	22.480	 H	1	UNK0	0.000	
21	 H12	-1.430	-5.720	22.660	 H	1	UNK0	0.000	
22	 H23	10.630	0.630	19.440	 H	1	UNK0	0.000	
23	 H18	5.080	2.520	18.300	 H	1	UNK0	0.000	
24	  N1	3.470	0.800	22.580	N.pl3	1	UNK0	0.000	
25	  C1	4.440	1.260	21.750	C.2	1	UNK0	0.000	
26	  O1	4.990	0.630	20.860	O.2	1	UNK0	0.000	
27	  C2	4.750	2.710	22.110	C.3	1	UNK0	0.000	
28	  C3	3.510	3.130	22.880	C.3	1	UNK0	0.000	
29	  C4	2.950	1.840	23.460	C.3	1	UNK0	0.000	
30	  F1	1.920	-0.440	20.500	 F	1	UNK0	0.000	
31	  C5	2.250	-1.140	21.580	C.2	1	UNK0	0.000	
32	  C6	3.000	-0.560	22.610	C.2	1	UNK0	0.000	
33	  C7	3.320	-1.370	23.710	C.2	1	UNK0	0.000	
34	  C8	2.890	-2.690	23.760	C.2	1	UNK0	0.000	
35	  C9	2.140	-3.260	22.730	C.2	1	UNK0	0.000	
36	 C10	1.820	-2.450	21.630	C.2	1	UNK0	0.000	
37	 C11	1.660	-4.680	22.830	C.3	1	UNK0	0.000	
38	 C12	0.480	-5.010	21.890	C.3	1	UNK0	0.000	
39	 C13	-0.760	-4.860	22.770	C.3	1	UNK0	0.000	
40	 C14	-0.250	-4.730	24.210	C.3	1	UNK0	0.000	
41	  N2	1.180	-5.030	24.180	N.3	1	UNK0	0.000	
42	  N3	4.990	3.530	20.930	N.3	1	UNK0	0.000	
43	  S1	6.480	3.820	20.370	S.o2	1	UNK0	0.000	
44	  O2	6.250	4.920	19.490	O.2	1	UNK0	0.000	
45	  O3	7.440	3.950	21.430	O.2	1	UNK0	0.000	
46	 C15	7.000	2.490	19.330	C.2	1	UNK0	0.000	
47	 C16	6.070	2.050	18.370	C.2	1	UNK0	0.000	
48	 C17	6.420	1.020	17.510	C.2	1	UNK0	0.000	
49	 C18	7.700	0.430	17.620	C.2	1	UNK0	0.000	
50	 C19	8.630	0.880	18.600	C.2	1	UNK0	0.000	
51	 C20	8.250	1.940	19.460	C.2	1	UNK0	0.000	
52	 C21	8.050	-0.610	16.770	C.2	1	UNK0	0.000	
53	 C22	9.320	-1.170	16.880	C.2	1	UNK0	0.000	
54	 Cl1	9.680	-2.460	15.770	Cl	1	UNK0	0.000	
55	 C23	10.250	-0.740	17.840	C.2	1	UNK0	0.000	
56	 C24	9.910	0.280	18.690	C.2	1	UNK0	0.000	
@<TRIPOS>BOND
1 24 25 1
2 24 29 1
3 24 32 1
4 25 26 2
5 25 27 1
6 15 27 1
7 27 28 1
8 27 42 1
9 10 28 1
10 14 28 1
11 28 29 1
12 11 29 1
13 12 29 1
14 30 31 1
15 31 32 1
16 31 36 2
17 32 33 2
18 5 33 1
19 33 34 1
20 9 34 1
21 34 35 2
22 35 36 1
23 35 37 1
24 17 36 1
25 16 37 1
26 37 38 1
27 37 41 1
28 4 38 1
29 18 38 1
30 38 39 1
31 20 39 1
32 21 39 1
33 39 40 1
34 13 40 1
35 19 40 1
36 40 41 1
37 3 41 1
38 1 42 1
39 42 43 1
40 43 44 2
41 43 45 2
42 43 46 1
43 46 47 2
44 46 51 1
45 23 47 1
46 47 48 1
47 2 48 1
48 48 49 2
49 49 50 1
50 49 52 1
51 50 51 2
52 50 56 1
53 6 51 1
54 7 52 1
55 52 53 2
56 53 54 1
57 53 55 1
58 8 55 1
59 55 56 2
60 22 56 1
@<TRIPOS>SUBSTRUCTURE
1	UNK0	1	GROUP	1 ****	UNK
