# created with PyMOL 2.5.0
@<TRIPOS>MOLECULE
MOL
33 37 1                 
SMALL
USER_CHARGES
@<TRIPOS>ATOM
1	  N1	3.565	0.708	22.475	N.pl3	1	UNK0	0.000	
2	  C1	4.537	1.182	21.655	C.2	1	UNK0	0.000	
3	  O1	5.096	0.564	20.762	O.2	1	UNK0	0.000	
4	  C2	4.838	2.630	22.032	C.3	1	UNK0	0.000	
5	  C3	3.591	3.035	22.799	C.3	1	UNK0	0.000	
6	  C4	3.035	1.736	23.363	C.3	1	UNK0	0.000	
7	  F1	2.033	-0.518	20.374	 F	1	UNK0	0.000	
8	  C5	2.361	-1.228	21.448	C.2	1	UNK0	0.000	
9	  C6	3.102	-0.654	22.488	C.2	1	UNK0	0.000	
10	  C7	3.420	-1.474	23.582	C.2	1	UNK0	0.000	
11	  C8	2.997	-2.797	23.616	C.2	1	UNK0	0.000	
12	  C9	2.256	-3.360	22.576	C.2	1	UNK0	0.000	
13	 C10	1.938	-2.540	21.482	C.2	1	UNK0	0.000	
14	 C11	1.782	-4.783	22.658	C.3	1	UNK0	0.000	
15	 C12	0.610	-5.110	21.708	C.3	1	UNK0	0.000	
16	 C13	-0.636	-4.975	22.583	C.3	1	UNK0	0.000	
17	 C14	-0.135	-4.857	24.027	C.3	1	UNK0	0.000	
18	  N2	1.297	-5.150	24.002	N.3	1	UNK0	0.000	
19	  N3	5.080	3.463	20.862	N.3	1	UNK0	0.000	
20	  S1	6.572	3.766	20.313	S.o2	1	UNK0	0.000	
21	  O2	6.341	4.874	19.443	O.2	1	UNK0	0.000	
22	  O3	7.525	3.890	21.380	O.2	1	UNK0	0.000	
23	 C15	7.105	2.450	19.263	C.2	1	UNK0	0.000	
24	 C16	6.182	2.015	18.293	C.2	1	UNK0	0.000	
25	 C17	6.543	0.996	17.424	C.2	1	UNK0	0.000	
26	 C18	7.825	0.411	17.536	C.2	1	UNK0	0.000	
27	 C19	8.747	0.856	18.526	C.2	1	UNK0	0.000	
28	 C20	8.357	1.905	19.394	C.2	1	UNK0	0.000	
29	 C21	8.185	-0.618	16.677	C.2	1	UNK0	0.000	
30	 C22	9.457	-1.173	16.789	C.2	1	UNK0	0.000	
31	 Cl1	9.830	-2.449	15.667	Cl	1	UNK0	0.000	
32	 C23	10.380	-0.748	17.758	C.2	1	UNK0	0.000	
33	 C24	10.030	0.262	18.617	C.2	1	UNK0	0.000	
@<TRIPOS>BOND
1 1 2 1
2 1 6 1
3 1 9 1
4 2 3 2
5 2 4 1
6 4 5 1
7 4 19 1
8 5 6 1
9 7 8 1
10 8 9 1
11 8 13 2
12 9 10 2
13 10 11 1
14 11 12 2
15 12 13 1
16 12 14 1
17 14 15 1
18 14 18 1
19 15 16 1
20 16 17 1
21 17 18 1
22 19 20 1
23 20 21 2
24 20 22 2
25 20 23 1
26 23 24 2
27 23 28 1
28 24 25 1
29 25 26 2
30 26 27 1
31 26 29 1
32 27 28 2
33 27 33 1
34 29 30 2
35 30 31 1
36 30 32 1
37 32 33 2
@<TRIPOS>SUBSTRUCTURE
1	UNK0	1	GROUP	1 ****	UNK
