# created with PyMOL 2.5.0
@<TRIPOS>MOLECULE
MOL
33 37 1                 
SMALL
USER_CHARGES
@<TRIPOS>ATOM
1	  N1	3.438	-0.857	23.793	N.pl3	1	UNK0	0.000	
2	  C1	4.795	-0.525	23.176	C.2	1	UNK0	0.000	
3	  O1	5.844	-1.157	23.322	O.2	1	UNK0	0.000	
4	  C2	4.657	0.983	22.376	C.3	1	UNK0	0.000	
5	  C3	3.024	1.346	22.425	C.3	1	UNK0	0.000	
6	  C4	2.302	0.275	23.514	C.3	1	UNK0	0.000	
7	  F1	4.773	-3.512	23.661	 F	1	UNK0	0.000	
8	  C5	3.804	-3.232	24.559	C.2	1	UNK0	0.000	
9	  C6	3.111	-1.999	24.574	C.2	1	UNK0	0.000	
10	  C7	1.993	-1.891	25.413	C.2	1	UNK0	0.000	
11	  C8	1.606	-2.945	26.237	C.2	1	UNK0	0.000	
12	  C9	2.288	-4.168	26.222	C.2	1	UNK0	0.000	
13	 C10	3.397	-4.286	25.373	C.2	1	UNK0	0.000	
14	 C11	1.914	-5.322	27.114	C.3	1	UNK0	0.000	
15	 C12	1.906	-6.772	26.257	C.3	1	UNK0	0.000	
16	 C13	0.427	-7.500	26.511	C.3	1	UNK0	0.000	
17	 C14	-0.459	-6.491	27.507	C.3	1	UNK0	0.000	
18	  N2	0.453	-5.195	27.808	N.3	1	UNK0	0.000	
19	  N3	5.084	1.144	20.941	N.3	1	UNK0	0.000	
20	  S1	5.211	2.780	20.578	S.o2	1	UNK0	0.000	
21	  O2	3.868	3.285	20.735	O.2	1	UNK0	0.000	
22	  O3	6.318	3.282	21.357	O.2	1	UNK0	0.000	
23	 C15	5.544	2.855	18.803	C.2	1	UNK0	0.000	
24	 C16	5.031	3.968	18.104	C.2	1	UNK0	0.000	
25	 C17	4.941	3.934	16.715	C.2	1	UNK0	0.000	
26	 C18	5.312	2.786	16.016	C.2	1	UNK0	0.000	
27	 C19	5.864	1.683	16.724	C.2	1	UNK0	0.000	
28	 C20	5.995	1.728	18.113	C.2	1	UNK0	0.000	
29	 C21	5.102	2.700	14.638	C.2	1	UNK0	0.000	
30	 C22	5.404	1.511	13.969	C.2	1	UNK0	0.000	
31	 Cl1	5.059	1.358	12.282	Cl	1	UNK0	0.000	
32	 C23	5.935	0.428	14.668	C.2	1	UNK0	0.000	
33	 C24	6.185	0.514	16.035	C.2	1	UNK0	0.000	
@<TRIPOS>BOND
1 1 2 1
2 1 6 1
3 1 9 1
4 2 3 2
5 2 4 1
6 4 5 1
7 4 19 1
8 5 6 1
9 7 8 1
10 8 9 1
11 8 13 2
12 9 10 2
13 10 11 1
14 11 12 2
15 12 13 1
16 12 14 1
17 14 15 1
18 14 18 1
19 15 16 1
20 16 17 1
21 17 18 1
22 19 20 1
23 20 21 2
24 20 22 2
25 20 23 1
26 23 24 2
27 23 28 1
28 24 25 1
29 25 26 2
30 26 27 1
31 26 29 1
32 27 28 2
33 27 33 1
34 29 30 2
35 30 31 1
36 30 32 1
37 32 33 2
@<TRIPOS>SUBSTRUCTURE
1	UNK0	1	GROUP	1 ****	UNK
