# created with PyMOL 2.5.0
@<TRIPOS>MOLECULE
MOL
56 60 1                 
SMALL
USER_CHARGES
@<TRIPOS>ATOM
1	 H17	10.210	2.510	21.560	 H	1	UNK0	0.000	
2	 H19	5.490	4.440	18.470	 H	1	UNK0	0.000	
3	 H16	4.870	-4.950	27.980	 H	1	UNK0	0.000	
4	 H10	1.530	-4.410	26.290	 H	1	UNK0	0.000	
5	 H06	6.740	-2.280	23.310	 H	1	UNK0	0.000	
6	 H20	7.600	-0.050	18.510	 H	1	UNK0	0.000	
7	 H21	4.630	3.980	16.200	 H	1	UNK0	0.000	
8	 H22	6.430	1.110	14.280	 H	1	UNK0	0.000	
9	 H07	5.590	-4.060	24.490	 H	1	UNK0	0.000	
10	 H02	6.650	2.950	21.990	 H	1	UNK0	0.000	
11	 H05	5.100	2.090	23.450	 H	1	UNK0	0.000	
12	 H04	6.210	2.220	24.840	 H	1	UNK0	0.000	
13	 H15	3.600	-3.120	29.820	 H	1	UNK0	0.000	
14	 H03	7.590	3.730	23.200	 H	1	UNK0	0.000	
15	 H01	9.140	1.710	23.290	 H	1	UNK0	0.000	
16	 H09	3.860	-4.810	25.920	 H	1	UNK0	0.000	
17	 H08	3.410	-1.160	26.790	 H	1	UNK0	0.000	
18	 H11	1.760	-2.660	26.260	 H	1	UNK0	0.000	
19	 H14	3.260	-4.850	29.670	 H	1	UNK0	0.000	
20	 H13	1.500	-2.580	28.680	 H	1	UNK0	0.000	
21	 H12	1.090	-4.300	28.660	 H	1	UNK0	0.000	
22	 H23	6.770	-0.620	16.380	 H	1	UNK0	0.000	
23	 H18	6.810	3.710	20.390	 H	1	UNK0	0.000	
24	  N1	6.500	0.360	23.650	N.pl3	1	UNK0	0.000	
25	  C1	7.770	0.100	22.810	C.2	1	UNK0	0.000	
26	  O1	8.320	-0.980	22.700	O.2	1	UNK0	0.000	
27	  C2	8.460	1.640	22.450	C.3	1	UNK0	0.000	
28	  C3	7.250	2.750	22.850	C.3	1	UNK0	0.000	
29	  C4	6.130	1.930	23.800	C.3	1	UNK0	0.000	
30	  F1	4.430	0.870	25.730	 F	1	UNK0	0.000	
31	  C5	4.770	-0.370	25.330	C.2	1	UNK0	0.000	
32	  C6	5.760	-0.650	24.340	C.2	1	UNK0	0.000	
33	  C7	6.000	-2.000	24.050	C.2	1	UNK0	0.000	
34	  C8	5.330	-3.030	24.710	C.2	1	UNK0	0.000	
35	  C9	4.390	-2.740	25.710	C.2	1	UNK0	0.000	
36	 C10	4.120	-1.410	26.000	C.2	1	UNK0	0.000	
37	 C11	3.750	-3.870	26.470	C.3	1	UNK0	0.000	
38	 C12	2.110	-3.590	26.720	C.3	1	UNK0	0.000	
39	 C13	1.850	-3.570	28.380	C.3	1	UNK0	0.000	
40	 C14	3.320	-3.910	29.120	C.3	1	UNK0	0.000	
41	  N2	4.420	-4.030	27.940	N.3	1	UNK0	0.000	
42	  N3	9.310	2.110	21.270	N.3	1	UNK0	0.000	
43	  S1	9.810	1.180	19.950	S.o2	1	UNK0	0.000	
44	  O2	11.160	1.560	19.660	O.2	1	UNK0	0.000	
45	  O3	9.400	-0.190	20.170	O.2	1	UNK0	0.000	
46	 C15	8.820	1.870	18.620	C.2	1	UNK0	0.000	
47	 C16	6.830	2.770	19.500	C.2	1	UNK0	0.000	
48	 C17	5.740	3.310	18.540	C.2	1	UNK0	0.000	
49	 C18	5.810	2.590	17.350	C.2	1	UNK0	0.000	
50	 C19	6.190	1.190	17.430	C.2	1	UNK0	0.000	
51	 C20	7.070	0.930	18.430	C.2	1	UNK0	0.000	
52	 C21	5.130	2.950	16.130	C.2	1	UNK0	0.000	
53	 C22	5.020	2.090	15.020	C.2	1	UNK0	0.000	
54	 Cl1	4.090	2.530	13.630	Cl	1	UNK0	0.000	
55	 C23	5.630	0.900	15.120	C.2	1	UNK0	0.000	
56	 C24	6.270	0.350	16.350	C.2	1	UNK0	0.000	
@<TRIPOS>BOND
1 24 25 1
2 24 29 1
3 24 32 1
4 25 26 2
5 25 27 1
6 15 27 1
7 27 28 1
8 27 42 1
9 10 28 1
10 14 28 1
11 28 29 1
12 11 29 1
13 12 29 1
14 30 31 1
15 31 32 1
16 31 36 2
17 32 33 2
18 5 33 1
19 33 34 1
20 9 34 1
21 34 35 2
22 35 36 1
23 35 37 1
24 17 36 1
25 16 37 1
26 37 38 1
27 37 41 1
28 4 38 1
29 18 38 1
30 38 39 1
31 20 39 1
32 21 39 1
33 39 40 1
34 13 40 1
35 19 40 1
36 40 41 1
37 3 41 1
38 1 42 1
39 42 43 1
40 43 44 2
41 43 45 2
42 43 46 1
43 46 47 2
44 46 51 1
45 23 47 1
46 47 48 1
47 2 48 1
48 48 49 2
49 49 50 1
50 49 52 1
51 50 51 2
52 50 56 1
53 6 51 1
54 7 52 1
55 52 53 2
56 53 54 1
57 53 55 1
58 8 55 1
59 55 56 2
60 22 56 1
@<TRIPOS>SUBSTRUCTURE
1	UNK0	1	GROUP	1 ****	UNK
