# created with PyMOL 2.5.0
@<TRIPOS>MOLECULE
MOL
56 60 1                 
SMALL
USER_CHARGES
@<TRIPOS>ATOM
1	 H17	5.380	4.070	18.020	 H	1	UNK0	0.000	
2	 H19	7.000	0.090	15.780	 H	1	UNK0	0.000	
3	 H16	2.340	-2.340	26.930	 H	1	UNK0	0.000	
4	 H10	1.690	-4.000	24.140	 H	1	UNK0	0.000	
5	 H06	6.290	0.790	23.860	 H	1	UNK0	0.000	
6	 H20	10.070	3.200	18.190	 H	1	UNK0	0.000	
7	 H21	8.600	-1.730	16.100	 H	1	UNK0	0.000	
8	 H22	12.360	-0.960	18.020	 H	1	UNK0	0.000	
9	 H07	5.320	-1.010	25.180	 H	1	UNK0	0.000	
10	 H02	7.120	4.660	21.150	 H	1	UNK0	0.000	
11	 H05	6.350	3.410	23.150	 H	1	UNK0	0.000	
12	 H04	7.350	2.000	22.670	 H	1	UNK0	0.000	
13	 H15	0.170	-0.570	26.060	 H	1	UNK0	0.000	
14	 H03	8.330	3.400	20.870	 H	1	UNK0	0.000	
15	 H01	6.970	2.270	19.200	 H	1	UNK0	0.000	
16	 H09	3.640	-2.900	25.100	 H	1	UNK0	0.000	
17	 H08	1.670	-0.660	22.900	 H	1	UNK0	0.000	
18	 H11	1.620	-2.730	22.930	 H	1	UNK0	0.000	
19	 H14	0.100	-2.080	27.000	 H	1	UNK0	0.000	
20	 H13	-0.390	-1.790	24.030	 H	1	UNK0	0.000	
21	 H12	-0.470	-3.320	24.930	 H	1	UNK0	0.000	
22	 H23	11.740	1.430	18.320	 H	1	UNK0	0.000	
23	 H18	6.310	2.420	16.170	 H	1	UNK0	0.000	
24	  N1	5.300	2.000	21.780	N.pl3	1	UNK0	0.000	
25	  C1	5.060	2.200	20.270	C.2	1	UNK0	0.000	
26	  O1	4.270	1.610	19.560	O.2	1	UNK0	0.000	
27	  C2	6.390	3.070	19.660	C.3	1	UNK0	0.000	
28	  C3	7.260	3.590	21.000	C.3	1	UNK0	0.000	
29	  C4	6.630	2.750	22.320	C.3	1	UNK0	0.000	
30	  F1	2.430	1.260	21.470	 F	1	UNK0	0.000	
31	  C5	3.260	0.630	22.340	C.2	1	UNK0	0.000	
32	  C6	4.580	1.070	22.560	C.2	1	UNK0	0.000	
33	  C7	5.290	0.490	23.630	C.2	1	UNK0	0.000	
34	  C8	4.720	-0.560	24.380	C.2	1	UNK0	0.000	
35	  C9	3.440	-1.030	24.100	C.2	1	UNK0	0.000	
36	 C10	2.690	-0.380	23.100	C.2	1	UNK0	0.000	
37	 C11	2.840	-2.180	24.880	C.3	1	UNK0	0.000	
38	 C12	1.600	-2.920	24.010	C.3	1	UNK0	0.000	
39	 C13	0.160	-2.440	24.720	C.3	1	UNK0	0.000	
40	 C14	0.550	-1.610	26.120	C.3	1	UNK0	0.000	
41	  N2	2.160	-1.600	26.230	N.3	1	UNK0	0.000	
42	  N3	6.180	4.170	18.650	N.3	1	UNK0	0.000	
43	  S1	7.520	4.580	17.750	S.o2	1	UNK0	0.000	
44	  O2	7.030	5.290	16.590	O.2	1	UNK0	0.000	
45	  O3	8.470	5.150	18.680	O.2	1	UNK0	0.000	
46	 C15	8.150	2.960	17.200	C.2	1	UNK0	0.000	
47	 C16	7.280	2.090	16.510	C.2	1	UNK0	0.000	
48	 C17	7.670	0.770	16.300	C.2	1	UNK0	0.000	
49	 C18	8.910	0.310	16.750	C.2	1	UNK0	0.000	
50	 C19	9.800	1.210	17.410	C.2	1	UNK0	0.000	
51	 C20	9.410	2.530	17.640	C.2	1	UNK0	0.000	
52	 C21	9.280	-1.030	16.580	C.2	1	UNK0	0.000	
53	 C22	10.510	-1.480	17.060	C.2	1	UNK0	0.000	
54	 Cl1	10.930	-3.140	16.910	Cl	1	UNK0	0.000	
55	 C23	11.400	-0.600	17.680	C.2	1	UNK0	0.000	
56	 C24	11.040	0.740	17.840	C.2	1	UNK0	0.000	
@<TRIPOS>BOND
1 24 25 1
2 24 29 1
3 24 32 1
4 25 26 2
5 25 27 1
6 15 27 1
7 27 28 1
8 27 42 1
9 10 28 1
10 14 28 1
11 28 29 1
12 11 29 1
13 12 29 1
14 30 31 1
15 31 32 1
16 31 36 2
17 32 33 2
18 5 33 1
19 33 34 1
20 9 34 1
21 34 35 2
22 35 36 1
23 35 37 1
24 17 36 1
25 16 37 1
26 37 38 1
27 37 41 1
28 4 38 1
29 18 38 1
30 38 39 1
31 20 39 1
32 21 39 1
33 39 40 1
34 13 40 1
35 19 40 1
36 40 41 1
37 3 41 1
38 1 42 1
39 42 43 1
40 43 44 2
41 43 45 2
42 43 46 1
43 46 47 2
44 46 51 1
45 23 47 1
46 47 48 1
47 2 48 1
48 48 49 2
49 49 50 1
50 49 52 1
51 50 51 2
52 50 56 1
53 6 51 1
54 7 52 1
55 52 53 2
56 53 54 1
57 53 55 1
58 8 55 1
59 55 56 2
60 22 56 1
@<TRIPOS>SUBSTRUCTURE
1	UNK0	1	GROUP	1 ****	UNK
