# created with PyMOL 2.5.0
@<TRIPOS>MOLECULE
MOL
33 37 1                 
SMALL
USER_CHARGES
@<TRIPOS>ATOM
1	  N1	7.324	5.114	21.361	N.pl3	1	UNK0	0.000	
2	  C1	7.397	5.517	19.895	C.2	1	UNK0	0.000	
3	  O1	7.112	4.829	18.921	O.2	1	UNK0	0.000	
4	  C2	8.076	7.079	19.796	C.3	1	UNK0	0.000	
5	  C3	8.575	7.424	21.365	C.3	1	UNK0	0.000	
6	  C4	8.020	6.183	22.364	C.3	1	UNK0	0.000	
7	  F1	4.975	3.817	20.170	 F	1	UNK0	0.000	
8	  C5	5.595	3.306	21.243	C.2	1	UNK0	0.000	
9	  C6	6.678	3.968	21.875	C.2	1	UNK0	0.000	
10	  C7	7.119	3.461	23.111	C.2	1	UNK0	0.000	
11	  C8	6.575	2.300	23.643	C.2	1	UNK0	0.000	
12	  C9	5.531	1.630	22.990	C.2	1	UNK0	0.000	
13	 C10	5.029	2.172	21.797	C.2	1	UNK0	0.000	
14	 C11	4.962	0.375	23.569	C.3	1	UNK0	0.000	
15	 C12	4.472	-0.664	22.334	C.3	1	UNK0	0.000	
16	 C13	2.791	-0.681	22.335	C.3	1	UNK0	0.000	
17	 C14	2.288	0.202	23.667	C.3	1	UNK0	0.000	
18	  N2	3.621	0.732	24.431	N.3	1	UNK0	0.000	
19	  N3	7.152	8.188	19.421	N.3	1	UNK0	0.000	
20	  S1	6.494	8.214	17.899	S.o2	1	UNK0	0.000	
21	  O2	5.864	9.510	17.768	O.2	1	UNK0	0.000	
22	  O3	7.519	7.753	16.987	O.2	1	UNK0	0.000	
23	 C15	5.147	6.989	17.979	C.2	1	UNK0	0.000	
24	 C16	3.966	7.311	18.687	C.2	1	UNK0	0.000	
25	 C17	2.901	6.413	18.696	C.2	1	UNK0	0.000	
26	 C18	2.977	5.203	17.987	C.2	1	UNK0	0.000	
27	 C19	4.156	4.902	17.250	C.2	1	UNK0	0.000	
28	 C20	5.221	5.800	17.231	C.2	1	UNK0	0.000	
29	 C21	1.923	4.295	18.016	C.2	1	UNK0	0.000	
30	 C22	2.029	3.085	17.327	C.2	1	UNK0	0.000	
31	 Cl1	0.737	1.953	17.390	Cl	1	UNK0	0.000	
32	 C23	3.189	2.773	16.609	C.2	1	UNK0	0.000	
33	 C24	4.243	3.681	16.571	C.2	1	UNK0	0.000	
@<TRIPOS>BOND
1 1 2 1
2 1 6 1
3 1 9 1
4 2 3 2
5 2 4 1
6 4 5 1
7 4 19 1
8 5 6 1
9 7 8 1
10 8 9 1
11 8 13 2
12 9 10 2
13 10 11 1
14 11 12 2
15 12 13 1
16 12 14 1
17 14 15 1
18 14 18 1
19 15 16 1
20 16 17 1
21 17 18 1
22 19 20 1
23 20 21 2
24 20 22 2
25 20 23 1
26 23 24 2
27 23 28 1
28 24 25 1
29 25 26 2
30 26 27 1
31 26 29 1
32 27 28 2
33 27 33 1
34 29 30 2
35 30 31 1
36 30 32 1
37 32 33 2
@<TRIPOS>SUBSTRUCTURE
1	UNK0	1	GROUP	1 ****	UNK
