# created with PyMOL 2.5.0
@<TRIPOS>MOLECULE
MOL
56 60 1                 
SMALL
USER_CHARGES
@<TRIPOS>ATOM
1	 H17	7.350	3.250	15.030	 H	1	UNK0	0.000	
2	 H19	7.470	-0.960	16.510	 H	1	UNK0	0.000	
3	 H16	-1.610	-2.880	15.300	 H	1	UNK0	0.000	
4	 H10	-1.400	-1.640	11.700	 H	1	UNK0	0.000	
5	 H06	1.230	2.440	15.120	 H	1	UNK0	0.000	
6	 H20	9.340	1.920	20.050	 H	1	UNK0	0.000	
7	 H21	6.880	-2.710	18.250	 H	1	UNK0	0.000	
8	 H22	6.470	-0.280	21.700	 H	1	UNK0	0.000	
9	 H07	-0.600	1.000	14.350	 H	1	UNK0	0.000	
10	 H02	4.760	4.900	16.460	 H	1	UNK0	0.000	
11	 H05	2.790	3.800	15.500	 H	1	UNK0	0.000	
12	 H04	2.470	3.020	17.080	 H	1	UNK0	0.000	
13	 H15	-3.450	-0.650	15.350	 H	1	UNK0	0.000	
14	 H03	4.510	4.070	18.000	 H	1	UNK0	0.000	
15	 H01	6.240	2.460	17.550	 H	1	UNK0	0.000	
16	 H09	-0.150	-2.640	13.500	 H	1	UNK0	0.000	
17	 H08	2.030	-2.400	14.420	 H	1	UNK0	0.000	
18	 H11	-0.970	-0.010	12.240	 H	1	UNK0	0.000	
19	 H14	-3.770	-2.240	14.640	 H	1	UNK0	0.000	
20	 H13	-3.220	0.320	13.110	 H	1	UNK0	0.000	
21	 H12	-3.680	-1.250	12.410	 H	1	UNK0	0.000	
22	 H23	8.590	0.330	21.800	 H	1	UNK0	0.000	
23	 H18	8.350	1.000	15.820	 H	1	UNK0	0.000	
24	  N1	3.700	1.770	15.680	N.pl3	1	UNK0	0.000	
25	  C1	5.210	1.560	15.750	C.2	1	UNK0	0.000	
26	  O1	5.880	0.670	15.240	O.2	1	UNK0	0.000	
27	  C2	5.900	2.870	16.600	C.3	1	UNK0	0.000	
28	  C3	4.610	3.920	16.910	C.3	1	UNK0	0.000	
29	  C4	3.220	3.200	16.300	C.3	1	UNK0	0.000	
30	  F1	4.030	-1.180	15.330	 F	1	UNK0	0.000	
31	  C5	2.910	-0.530	14.980	C.2	1	UNK0	0.000	
32	  C6	2.720	0.860	15.190	C.2	1	UNK0	0.000	
33	  C7	1.430	1.380	14.960	C.2	1	UNK0	0.000	
34	  C8	0.390	0.580	14.510	C.2	1	UNK0	0.000	
35	  C9	0.590	-0.790	14.280	C.2	1	UNK0	0.000	
36	 C10	1.860	-1.330	14.540	C.2	1	UNK0	0.000	
37	 C11	-0.540	-1.670	13.830	C.3	1	UNK0	0.000	
38	 C12	-1.400	-0.960	12.570	C.3	1	UNK0	0.000	
39	 C13	-2.980	-0.750	13.090	C.3	1	UNK0	0.000	
40	 C14	-3.090	-1.400	14.640	C.3	1	UNK0	0.000	
41	  N2	-1.600	-1.900	15.040	N.3	1	UNK0	0.000	
42	  N3	6.960	3.650	15.890	N.3	1	UNK0	0.000	
43	  S1	8.260	4.040	16.850	S.o2	1	UNK0	0.000	
44	  O2	9.110	4.910	16.070	O.2	1	UNK0	0.000	
45	  O3	7.730	4.430	18.130	O.2	1	UNK0	0.000	
46	 C15	9.080	2.450	17.040	C.2	1	UNK0	0.000	
47	 C16	8.380	1.020	16.950	C.2	1	UNK0	0.000	
48	 C17	7.810	-0.300	17.360	C.2	1	UNK0	0.000	
49	 C18	7.790	-0.760	18.720	C.2	1	UNK0	0.000	
50	 C19	8.400	0.140	19.700	C.2	1	UNK0	0.000	
51	 C20	8.970	1.500	19.060	C.2	1	UNK0	0.000	
52	 C21	7.150	-1.960	19.060	C.2	1	UNK0	0.000	
53	 C22	6.890	-1.820	20.420	C.2	1	UNK0	0.000	
54	 Cl1	6.490	-2.820	20.960	Cl	1	UNK0	0.000	
55	 C23	7.170	-1.030	21.460	C.2	1	UNK0	0.000	
56	 C24	8.140	-0.210	21.030	C.2	1	UNK0	0.000	
@<TRIPOS>BOND
1 24 25 1
2 24 29 1
3 24 32 1
4 25 26 2
5 25 27 1
6 15 27 1
7 27 28 1
8 27 42 1
9 10 28 1
10 14 28 1
11 28 29 1
12 11 29 1
13 12 29 1
14 30 31 1
15 31 32 1
16 31 36 2
17 32 33 2
18 5 33 1
19 33 34 1
20 9 34 1
21 34 35 2
22 35 36 1
23 35 37 1
24 17 36 1
25 16 37 1
26 37 38 1
27 37 41 1
28 4 38 1
29 18 38 1
30 38 39 1
31 20 39 1
32 21 39 1
33 39 40 1
34 13 40 1
35 19 40 1
36 40 41 1
37 3 41 1
38 1 42 1
39 42 43 1
40 43 44 2
41 43 45 2
42 43 46 1
43 46 47 2
44 46 51 1
45 23 47 1
46 47 48 1
47 2 48 1
48 48 49 2
49 49 50 1
50 49 52 1
51 50 51 2
52 50 56 1
53 6 51 1
54 7 52 1
55 52 53 2
56 53 54 1
57 53 55 1
58 8 55 1
59 55 56 2
60 22 56 1
@<TRIPOS>SUBSTRUCTURE
1	UNK0	1	GROUP	1 ****	UNK
