# created with PyMOL 2.5.0
@<TRIPOS>MOLECULE
MOL
33 37 1                 
SMALL
USER_CHARGES
@<TRIPOS>ATOM
1	  N1	5.309	1.274	21.161	N.pl3	1	UNK0	0.000	
2	  C1	5.058	1.544	19.663	C.2	1	UNK0	0.000	
3	  O1	4.275	0.976	18.928	O.2	1	UNK0	0.000	
4	  C2	6.371	2.465	19.091	C.3	1	UNK0	0.000	
5	  C3	7.238	2.933	20.452	C.3	1	UNK0	0.000	
6	  C4	6.629	2.019	21.732	C.3	1	UNK0	0.000	
7	  F1	2.450	0.502	20.826	 F	1	UNK0	0.000	
8	  C5	3.295	-0.156	21.661	C.2	1	UNK0	0.000	
9	  C6	4.608	0.295	21.897	C.2	1	UNK0	0.000	
10	  C7	5.333	-0.325	22.934	C.2	1	UNK0	0.000	
11	  C8	4.784	-1.420	23.634	C.2	1	UNK0	0.000	
12	  C9	3.511	-1.897	23.337	C.2	1	UNK0	0.000	
13	 C10	2.745	-1.212	22.373	C.2	1	UNK0	0.000	
14	 C11	2.934	-3.094	24.062	C.3	1	UNK0	0.000	
15	 C12	1.702	-3.811	23.161	C.3	1	UNK0	0.000	
16	 C13	0.258	-3.391	23.900	C.3	1	UNK0	0.000	
17	 C14	0.641	-2.624	25.337	C.3	1	UNK0	0.000	
18	  N2	2.251	-2.592	25.441	N.3	1	UNK0	0.000	
19	  N3	6.137	3.609	18.137	N.3	1	UNK0	0.000	
20	  S1	7.466	4.086	17.253	S.o2	1	UNK0	0.000	
21	  O2	6.959	4.843	16.132	O.2	1	UNK0	0.000	
22	  O3	8.411	4.625	18.206	O.2	1	UNK0	0.000	
23	 C15	8.120	2.505	16.622	C.2	1	UNK0	0.000	
24	 C16	7.262	1.656	15.894	C.2	1	UNK0	0.000	
25	 C17	7.673	0.354	15.618	C.2	1	UNK0	0.000	
26	 C18	8.922	-0.106	16.040	C.2	1	UNK0	0.000	
27	 C19	9.800	0.776	16.739	C.2	1	UNK0	0.000	
28	 C20	9.389	2.076	17.035	C.2	1	UNK0	0.000	
29	 C21	9.314	-1.430	15.803	C.2	1	UNK0	0.000	
30	 C22	10.554	-1.882	16.255	C.2	1	UNK0	0.000	
31	 Cl1	11.001	-3.525	16.022	Cl	1	UNK0	0.000	
32	 C23	11.432	-1.018	16.914	C.2	1	UNK0	0.000	
33	 C24	11.050	0.306	17.141	C.2	1	UNK0	0.000	
@<TRIPOS>BOND
1 1 2 1
2 1 6 1
3 1 9 1
4 2 3 2
5 2 4 1
6 4 5 1
7 4 19 1
8 5 6 1
9 7 8 1
10 8 9 1
11 8 13 2
12 9 10 2
13 10 11 1
14 11 12 2
15 12 13 1
16 12 14 1
17 14 15 1
18 14 18 1
19 15 16 1
20 16 17 1
21 17 18 1
22 19 20 1
23 20 21 2
24 20 22 2
25 20 23 1
26 23 24 2
27 23 28 1
28 24 25 1
29 25 26 2
30 26 27 1
31 26 29 1
32 27 28 2
33 27 33 1
34 29 30 2
35 30 31 1
36 30 32 1
37 32 33 2
@<TRIPOS>SUBSTRUCTURE
1	UNK0	1	GROUP	1 ****	UNK
