# created with PyMOL 2.5.0
@<TRIPOS>MOLECULE
MOL
33 37 1                 
SMALL
USER_CHARGES
@<TRIPOS>ATOM
1	  N1	6.209	-0.370	22.772	N.pl3	1	UNK0	0.000	
2	  C1	7.475	-0.622	21.924	C.2	1	UNK0	0.000	
3	  O1	8.011	-1.706	21.782	O.2	1	UNK0	0.000	
4	  C2	8.185	0.918	21.608	C.3	1	UNK0	0.000	
5	  C3	6.990	2.032	22.042	C.3	1	UNK0	0.000	
6	  C4	5.860	1.200	22.968	C.3	1	UNK0	0.000	
7	  F1	4.147	0.107	24.868	 F	1	UNK0	0.000	
8	  C5	4.470	-1.125	24.432	C.2	1	UNK0	0.000	
9	  C6	5.456	-1.389	23.433	C.2	1	UNK0	0.000	
10	  C7	5.678	-2.734	23.104	C.2	1	UNK0	0.000	
11	  C8	4.994	-3.773	23.734	C.2	1	UNK0	0.000	
12	  C9	4.059	-3.500	24.743	C.2	1	UNK0	0.000	
13	 C10	3.807	-2.176	25.072	C.2	1	UNK0	0.000	
14	 C11	3.404	-4.643	25.470	C.3	1	UNK0	0.000	
15	 C12	1.768	-4.349	25.730	C.3	1	UNK0	0.000	
16	 C13	1.509	-4.374	27.390	C.3	1	UNK0	0.000	
17	 C14	2.975	-4.754	28.118	C.3	1	UNK0	0.000	
18	  N2	4.072	-4.855	26.934	N.3	1	UNK0	0.000	
19	  N3	9.041	1.411	20.442	N.3	1	UNK0	0.000	
20	  S1	9.528	0.513	19.095	S.o2	1	UNK0	0.000	
21	  O2	10.883	0.884	18.815	O.2	1	UNK0	0.000	
22	  O3	9.100	-0.857	19.275	O.2	1	UNK0	0.000	
23	 C15	8.547	1.255	17.786	C.2	1	UNK0	0.000	
24	 C16	6.569	2.155	18.694	C.2	1	UNK0	0.000	
25	 C17	5.486	2.738	17.751	C.2	1	UNK0	0.000	
26	 C18	5.546	2.052	16.540	C.2	1	UNK0	0.000	
27	 C19	5.907	0.645	16.579	C.2	1	UNK0	0.000	
28	 C20	6.784	0.344	17.571	C.2	1	UNK0	0.000	
29	 C21	4.870	2.456	15.332	C.2	1	UNK0	0.000	
30	 C22	4.748	1.630	14.197	C.2	1	UNK0	0.000	
31	 Cl1	3.824	2.123	12.822	Cl	1	UNK0	0.000	
32	 C23	5.343	0.430	14.262	C.2	1	UNK0	0.000	
33	 C24	5.976	-0.164	15.475	C.2	1	UNK0	0.000	
@<TRIPOS>BOND
1 1 2 1
2 1 6 1
3 1 9 1
4 2 3 2
5 2 4 1
6 4 5 1
7 4 19 1
8 5 6 1
9 7 8 1
10 8 9 1
11 8 13 2
12 9 10 2
13 10 11 1
14 11 12 2
15 12 13 1
16 12 14 1
17 14 15 1
18 14 18 1
19 15 16 1
20 16 17 1
21 17 18 1
22 19 20 1
23 20 21 2
24 20 22 2
25 20 23 1
26 23 24 2
27 23 28 1
28 24 25 1
29 25 26 2
30 26 27 1
31 26 29 1
32 27 28 2
33 27 33 1
34 29 30 2
35 30 31 1
36 30 32 1
37 32 33 2
@<TRIPOS>SUBSTRUCTURE
1	UNK0	1	GROUP	1 ****	UNK
