# created with PyMOL 2.5.0
@<TRIPOS>MOLECULE
MOL
56 60 1                 
SMALL
USER_CHARGES
@<TRIPOS>ATOM
1	 H17	4.220	3.410	20.010	 H	1	UNK0	0.000	
2	 H19	5.540	0.610	16.650	 H	1	UNK0	0.000	
3	 H16	1.260	-5.990	24.620	 H	1	UNK0	0.000	
4	 H10	0.330	-6.110	21.620	 H	1	UNK0	0.000	
5	 H06	3.490	-0.830	24.600	 H	1	UNK0	0.000	
6	 H20	8.680	2.440	20.050	 H	1	UNK0	0.000	
7	 H21	7.230	-1.060	16.020	 H	1	UNK0	0.000	
8	 H22	11.050	-1.080	17.970	 H	1	UNK0	0.000	
9	 H07	2.780	-3.150	24.780	 H	1	UNK0	0.000	
10	 H02	2.930	3.830	22.600	 H	1	UNK0	0.000	
11	 H05	1.870	1.950	23.830	 H	1	UNK0	0.000	
12	 H04	3.440	1.480	24.560	 H	1	UNK0	0.000	
13	 H15	-0.870	-3.940	24.910	 H	1	UNK0	0.000	
14	 H03	4.150	3.800	23.870	 H	1	UNK0	0.000	
15	 H01	5.780	2.570	22.380	 H	1	UNK0	0.000	
16	 H09	2.370	-5.330	22.690	 H	1	UNK0	0.000	
17	 H08	1.280	-3.000	20.730	 H	1	UNK0	0.000	
18	 H11	0.070	-4.450	21.110	 H	1	UNK0	0.000	
19	 H14	-1.020	-5.680	25.190	 H	1	UNK0	0.000	
20	 H13	-1.750	-4.200	22.700	 H	1	UNK0	0.000	
21	 H12	-1.730	-5.970	22.800	 H	1	UNK0	0.000	
22	 H23	10.350	0.830	19.380	 H	1	UNK0	0.000	
23	 H18	4.850	2.540	18.020	 H	1	UNK0	0.000	
24	  N1	3.200	0.740	22.510	N.pl3	1	UNK0	0.000	
25	  C1	4.250	1.140	21.490	C.2	1	UNK0	0.000	
26	  O1	4.560	0.520	20.490	O.2	1	UNK0	0.000	
27	  C2	4.800	2.690	21.910	C.3	1	UNK0	0.000	
28	  C3	3.700	3.200	23.080	C.3	1	UNK0	0.000	
29	  C4	2.940	1.830	23.650	C.3	1	UNK0	0.000	
30	  F1	1.860	-0.580	20.350	 F	1	UNK0	0.000	
31	  C5	2.140	-1.230	21.490	C.2	1	UNK0	0.000	
32	  C6	2.720	-0.570	22.590	C.2	1	UNK0	0.000	
33	  C7	2.930	-1.270	23.780	C.2	1	UNK0	0.000	
34	  C8	2.560	-2.610	23.870	C.2	1	UNK0	0.000	
35	  C9	1.910	-3.260	22.810	C.2	1	UNK0	0.000	
36	 C10	1.730	-2.550	21.610	C.2	1	UNK0	0.000	
37	 C11	1.510	-4.710	22.950	C.3	1	UNK0	0.000	
38	 C12	0.200	-5.080	21.980	C.3	1	UNK0	0.000	
39	 C13	-1.130	-5.060	22.950	C.3	1	UNK0	0.000	
40	 C14	-0.590	-4.930	24.530	C.3	1	UNK0	0.000	
41	  N2	1.020	-5.000	24.470	N.3	1	UNK0	0.000	
42	  N3	4.790	3.660	20.810	N.3	1	UNK0	0.000	
43	  S1	6.260	4.050	20.160	S.o2	1	UNK0	0.000	
44	  O2	5.870	5.140	19.300	O.2	1	UNK0	0.000	
45	  O3	7.180	4.180	21.260	O.2	1	UNK0	0.000	
46	 C15	6.710	2.600	19.160	C.2	1	UNK0	0.000	
47	 C16	5.830	2.100	18.180	C.2	1	UNK0	0.000	
48	 C17	6.220	1.010	17.400	C.2	1	UNK0	0.000	
49	 C18	7.490	0.430	17.560	C.2	1	UNK0	0.000	
50	 C19	8.380	0.960	18.530	C.2	1	UNK0	0.000	
51	 C20	7.980	2.030	19.330	C.2	1	UNK0	0.000	
52	 C21	7.890	-0.650	16.770	C.2	1	UNK0	0.000	
53	 C22	9.170	-1.200	16.930	C.2	1	UNK0	0.000	
54	 Cl1	9.650	-2.580	16.010	Cl	1	UNK0	0.000	
55	 C23	10.060	-0.660	17.870	C.2	1	UNK0	0.000	
56	 C24	9.660	0.410	18.660	C.2	1	UNK0	0.000	
@<TRIPOS>BOND
1 24 25 1
2 24 29 1
3 24 32 1
4 25 26 2
5 25 27 1
6 15 27 1
7 27 28 1
8 27 42 1
9 10 28 1
10 14 28 1
11 28 29 1
12 11 29 1
13 12 29 1
14 30 31 1
15 31 32 1
16 31 36 2
17 32 33 2
18 5 33 1
19 33 34 1
20 9 34 1
21 34 35 2
22 35 36 1
23 35 37 1
24 17 36 1
25 16 37 1
26 37 38 1
27 37 41 1
28 4 38 1
29 18 38 1
30 38 39 1
31 20 39 1
32 21 39 1
33 39 40 1
34 13 40 1
35 19 40 1
36 40 41 1
37 3 41 1
38 1 42 1
39 42 43 1
40 43 44 2
41 43 45 2
42 43 46 1
43 46 47 2
44 46 51 1
45 23 47 1
46 47 48 1
47 2 48 1
48 48 49 2
49 49 50 1
50 49 52 1
51 50 51 2
52 50 56 1
53 6 51 1
54 7 52 1
55 52 53 2
56 53 54 1
57 53 55 1
58 8 55 1
59 55 56 2
60 22 56 1
@<TRIPOS>SUBSTRUCTURE
1	UNK0	1	GROUP	1 ****	UNK
