# created with PyMOL 2.5.0
@<TRIPOS>MOLECULE
MOL
56 60 1                 
SMALL
USER_CHARGES
@<TRIPOS>ATOM
1	 H17	2.780	3.720	20.660	 H	1	UNK0	0.000	
2	 H19	6.000	2.290	16.870	 H	1	UNK0	0.000	
3	 H16	4.350	-6.120	25.080	 H	1	UNK0	0.000	
4	 H10	0.790	-5.690	24.860	 H	1	UNK0	0.000	
5	 H06	2.930	-0.220	25.670	 H	1	UNK0	0.000	
6	 H20	6.860	3.710	21.570	 H	1	UNK0	0.000	
7	 H21	7.830	0.670	17.040	 H	1	UNK0	0.000	
8	 H22	10.020	0.300	20.710	 H	1	UNK0	0.000	
9	 H07	2.760	-2.570	26.210	 H	1	UNK0	0.000	
10	 H02	1.950	3.970	23.520	 H	1	UNK0	0.000	
11	 H05	1.470	1.720	24.380	 H	1	UNK0	0.000	
12	 H04	2.960	1.780	25.350	 H	1	UNK0	0.000	
13	 H15	3.860	-5.000	27.740	 H	1	UNK0	0.000	
14	 H03	3.350	4.070	24.580	 H	1	UNK0	0.000	
15	 H01	4.900	3.630	22.790	 H	1	UNK0	0.000	
16	 H09	2.820	-5.310	23.600	 H	1	UNK0	0.000	
17	 H08	3.280	-3.580	22.060	 H	1	UNK0	0.000	
18	 H11	0.780	-4.000	25.380	 H	1	UNK0	0.000	
19	 H14	3.670	-6.680	27.200	 H	1	UNK0	0.000	
20	 H13	1.450	-4.670	27.630	 H	1	UNK0	0.000	
21	 H12	1.240	-6.360	27.130	 H	1	UNK0	0.000	
22	 H23	8.670	2.100	21.720	 H	1	UNK0	0.000	
23	 H18	4.560	4.000	17.900	 H	1	UNK0	0.000	
24	  N1	3.260	0.910	23.310	N.pl3	1	UNK0	0.000	
25	  C1	4.020	1.620	22.200	C.2	1	UNK0	0.000	
26	  O1	4.710	1.110	21.330	O.2	1	UNK0	0.000	
27	  C2	3.910	3.300	22.470	C.3	1	UNK0	0.000	
28	  C3	2.890	3.470	23.800	C.3	1	UNK0	0.000	
29	  C4	2.540	1.920	24.360	C.3	1	UNK0	0.000	
30	  F1	3.370	-1.200	21.230	 F	1	UNK0	0.000	
31	  C5	3.320	-1.490	22.530	C.2	1	UNK0	0.000	
32	  C6	3.200	-0.500	23.540	C.2	1	UNK0	0.000	
33	  C7	2.980	-0.920	24.860	C.2	1	UNK0	0.000	
34	  C8	2.910	-2.290	25.180	C.2	1	UNK0	0.000	
35	  C9	3.020	-3.260	24.180	C.2	1	UNK0	0.000	
36	 C10	3.230	-2.850	22.860	C.2	1	UNK0	0.000	
37	 C11	2.840	-4.710	24.520	C.3	1	UNK0	0.000	
38	 C12	1.390	-4.910	25.350	C.3	1	UNK0	0.000	
39	 C13	1.760	-5.420	26.900	C.3	1	UNK0	0.000	
40	 C14	3.430	-5.640	26.960	C.3	1	UNK0	0.000	
41	  N2	4.010	-5.240	25.500	N.3	1	UNK0	0.000	
42	  N3	3.380	4.150	21.360	N.3	1	UNK0	0.000	
43	  S1	4.480	5.140	20.590	S.o2	1	UNK0	0.000	
44	  O2	3.710	5.810	19.570	O.2	1	UNK0	0.000	
45	  O3	5.180	5.850	21.640	O.2	1	UNK0	0.000	
46	 C15	5.590	3.940	19.820	C.2	1	UNK0	0.000	
47	 C16	5.360	3.560	18.480	C.2	1	UNK0	0.000	
48	 C17	6.180	2.590	17.890	C.2	1	UNK0	0.000	
49	 C18	7.210	1.990	18.630	C.2	1	UNK0	0.000	
50	 C19	7.460	2.410	19.970	C.2	1	UNK0	0.000	
51	 C20	6.660	3.400	20.550	C.2	1	UNK0	0.000	
52	 C21	8.000	0.990	18.060	C.2	1	UNK0	0.000	
53	 C22	9.000	0.380	18.810	C.2	1	UNK0	0.000	
54	 Cl1	9.950	-0.880	18.120	Cl	1	UNK0	0.000	
55	 C23	9.240	0.790	20.120	C.2	1	UNK0	0.000	
56	 C24	8.480	1.800	20.700	C.2	1	UNK0	0.000	
@<TRIPOS>BOND
1 24 25 1
2 24 29 1
3 24 32 1
4 25 26 2
5 25 27 1
6 15 27 1
7 27 28 1
8 27 42 1
9 10 28 1
10 14 28 1
11 28 29 1
12 11 29 1
13 12 29 1
14 30 31 1
15 31 32 1
16 31 36 2
17 32 33 2
18 5 33 1
19 33 34 1
20 9 34 1
21 34 35 2
22 35 36 1
23 35 37 1
24 17 36 1
25 16 37 1
26 37 38 1
27 37 41 1
28 4 38 1
29 18 38 1
30 38 39 1
31 20 39 1
32 21 39 1
33 39 40 1
34 13 40 1
35 19 40 1
36 40 41 1
37 3 41 1
38 1 42 1
39 42 43 1
40 43 44 2
41 43 45 2
42 43 46 1
43 46 47 2
44 46 51 1
45 23 47 1
46 47 48 1
47 2 48 1
48 48 49 2
49 49 50 1
50 49 52 1
51 50 51 2
52 50 56 1
53 6 51 1
54 7 52 1
55 52 53 2
56 53 54 1
57 53 55 1
58 8 55 1
59 55 56 2
60 22 56 1
@<TRIPOS>SUBSTRUCTURE
1	UNK0	1	GROUP	1 ****	UNK
