# created with PyMOL 2.5.0
@<TRIPOS>MOLECULE
MOL
56 60 1                 
SMALL
USER_CHARGES
@<TRIPOS>ATOM
1	 H17	-5.270	9.810	18.370	 H	1	UNK0	0.000	
2	 H19	5.290	-5.790	16.830	 H	1	UNK0	0.000	
3	 H16	-9.560	-2.040	23.600	 H	1	UNK0	0.000	
4	 H10	-11.700	-1.380	25.040	 H	1	UNK0	0.000	
5	 H06	-11.130	3.660	21.950	 H	1	UNK0	0.000	
6	 H20	3.000	-1.210	18.000	 H	1	UNK0	0.000	
7	 H21	3.200	-6.750	16.420	 H	1	UNK0	0.000	
8	 H22	-0.190	-4.400	17.800	 H	1	UNK0	0.000	
9	 H07	-9.160	-1.600	25.010	 H	1	UNK0	0.000	
10	 H02	-6.880	5.910	18.970	 H	1	UNK0	0.000	
11	 H05	-4.490	4.590	18.590	 H	1	UNK0	0.000	
12	 H04	-5.510	5.420	19.400	 H	1	UNK0	0.000	
13	 H15	-9.670	-1.730	20.950	 H	1	UNK0	0.000	
14	 H03	-5.750	7.070	19.370	 H	1	UNK0	0.000	
15	 H01	-4.680	8.380	22.550	 H	1	UNK0	0.000	
16	 H09	-10.950	-1.920	26.290	 H	1	UNK0	0.000	
17	 H08	-12.420	0.570	21.590	 H	1	UNK0	0.000	
18	 H11	-13.090	-2.830	24.600	 H	1	UNK0	0.000	
19	 H14	-10.620	-1.400	21.120	 H	1	UNK0	0.000	
20	 H13	-11.190	-3.750	21.700	 H	1	UNK0	0.000	
21	 H12	-11.410	-2.420	22.160	 H	1	UNK0	0.000	
22	 H23	0.700	-2.240	17.930	 H	1	UNK0	0.000	
23	 H18	5.400	-4.520	16.140	 H	1	UNK0	0.000	
24	  N1	-4.180	4.480	17.150	N.pl3	1	UNK0	0.000	
25	  C1	-3.570	5.970	17.960	C.2	1	UNK0	0.000	
26	  O1	-5.120	6.180	16.990	O.2	1	UNK0	0.000	
27	  C2	-4.990	7.560	19.750	C.3	1	UNK0	0.000	
28	  C3	0.320	10.810	18.970	C.3	1	UNK0	0.000	
29	  C4	-5.330	4.730	18.760	C.3	1	UNK0	0.000	
30	  F1	-10.100	1.050	19.900	 F	1	UNK0	0.000	
31	  C5	-10.310	1.850	21.070	C.2	1	UNK0	0.000	
32	  C6	-8.350	3.320	19.980	C.2	1	UNK0	0.000	
33	  C7	-10.090	3.060	22.600	C.2	1	UNK0	0.000	
34	  C8	-11.010	0.900	24.650	C.2	1	UNK0	0.000	
35	  C9	-13.370	-0.480	24.900	C.2	1	UNK0	0.000	
36	 C10	-11.960	0.680	22.790	C.2	1	UNK0	0.000	
37	 C11	-12.100	-1.660	25.780	C.3	1	UNK0	0.000	
38	 C12	-12.100	-2.620	24.500	C.3	1	UNK0	0.000	
39	 C13	-10.990	-3.260	22.620	C.3	1	UNK0	0.000	
40	 C14	-10.210	-1.910	22.110	C.3	1	UNK0	0.000	
41	  N2	-10.360	-1.220	23.740	N.3	1	UNK0	0.000	
42	  N3	-5.850	9.410	19.110	N.3	1	UNK0	0.000	
43	  S1	-6.350	10.810	20.500	S.o2	1	UNK0	0.000	
44	  O2	-4.320	6.580	19.550	O.2	1	UNK0	0.000	
45	  O3	-6.920	9.660	20.250	O.2	1	UNK0	0.000	
46	 C15	1.580	-1.770	16.000	C.2	1	UNK0	0.000	
47	 C16	5.490	-3.810	17.550	C.2	1	UNK0	0.000	
48	 C17	4.800	-4.850	17.110	C.2	1	UNK0	0.000	
49	 C18	3.230	-4.790	17.240	C.2	1	UNK0	0.000	
50	 C19	2.810	-3.490	17.380	C.2	1	UNK0	0.000	
51	 C20	4.300	-3.240	16.790	C.2	1	UNK0	0.000	
52	 C21	2.490	-5.800	16.870	C.2	1	UNK0	0.000	
53	 C22	1.940	-7.310	14.930	C.2	1	UNK0	0.000	
54	 Cl1	2.360	-6.910	17.030	Cl	1	UNK0	0.000	
55	 C23	-5.130	-2.200	15.060	C.2	1	UNK0	0.000	
56	 C24	1.390	-3.300	17.540	C.2	1	UNK0	0.000	
@<TRIPOS>BOND
1 24 25 1
2 24 29 1
3 24 32 1
4 25 26 2
5 25 27 1
6 15 27 1
7 27 28 1
8 27 42 1
9 10 28 1
10 14 28 1
11 28 29 1
12 11 29 1
13 12 29 1
14 30 31 1
15 31 32 1
16 31 36 2
17 32 33 2
18 5 33 1
19 33 34 1
20 9 34 1
21 34 35 2
22 35 36 1
23 35 37 1
24 17 36 1
25 16 37 1
26 37 38 1
27 37 41 1
28 4 38 1
29 18 38 1
30 38 39 1
31 20 39 1
32 21 39 1
33 39 40 1
34 13 40 1
35 19 40 1
36 40 41 1
37 3 41 1
38 1 42 1
39 42 43 1
40 43 44 2
41 43 45 2
42 43 46 1
43 46 47 2
44 46 51 1
45 23 47 1
46 47 48 1
47 2 48 1
48 48 49 2
49 49 50 1
50 49 52 1
51 50 51 2
52 50 56 1
53 6 51 1
54 7 52 1
55 52 53 2
56 53 54 1
57 53 55 1
58 8 55 1
59 55 56 2
60 22 56 1
@<TRIPOS>SUBSTRUCTURE
1	UNK0	1	GROUP	1 ****	UNK
