# created with PyMOL 2.5.0
@<TRIPOS>MOLECULE
MOL
56 60 1                 
SMALL
USER_CHARGES
@<TRIPOS>ATOM
1	 H17	2.000	4.830	20.130	 H	1	UNK0	0.000	
2	 H19	5.570	2.220	17.940	 H	1	UNK0	0.000	
3	 H16	1.690	1.070	30.220	 H	1	UNK0	0.000	
4	 H10	1.300	-1.950	28.410	 H	1	UNK0	0.000	
5	 H06	4.850	3.000	25.910	 H	1	UNK0	0.000	
6	 H20	5.930	7.180	18.290	 H	1	UNK0	0.000	
7	 H21	7.950	2.110	17.320	 H	1	UNK0	0.000	
8	 H22	10.180	5.740	16.790	 H	1	UNK0	0.000	
9	 H07	4.310	1.470	27.760	 H	1	UNK0	0.000	
10	 H02	3.840	6.620	22.680	 H	1	UNK0	0.000	
11	 H05	3.750	5.530	24.890	 H	1	UNK0	0.000	
12	 H04	5.210	4.570	24.510	 H	1	UNK0	0.000	
13	 H15	-1.010	1.530	29.230	 H	1	UNK0	0.000	
14	 H03	5.420	5.900	22.400	 H	1	UNK0	0.000	
15	 H01	4.500	4.160	20.930	 H	1	UNK0	0.000	
16	 H09	2.900	-0.170	28.750	 H	1	UNK0	0.000	
17	 H08	0.410	0.770	26.080	 H	1	UNK0	0.000	
18	 H11	0.800	-1.220	26.880	 H	1	UNK0	0.000	
19	 H14	-0.500	0.570	30.630	 H	1	UNK0	0.000	
20	 H13	-1.300	-0.490	27.900	 H	1	UNK0	0.000	
21	 H12	-0.880	-1.480	29.310	 H	1	UNK0	0.000	
22	 H23	8.170	7.080	17.350	 H	1	UNK0	0.000	
23	 H18	3.640	3.520	18.730	 H	1	UNK0	0.000	
24	  N1	3.320	3.590	23.850	N.pl3	1	UNK0	0.000	
25	  C1	2.980	3.390	22.390	C.2	1	UNK0	0.000	
26	  O1	2.370	2.450	21.890	O.2	1	UNK0	0.000	
27	  C2	3.700	4.640	21.490	C.3	1	UNK0	0.000	
28	  C3	4.380	5.670	22.640	C.3	1	UNK0	0.000	
29	  C4	4.240	4.900	24.140	C.3	1	UNK0	0.000	
30	  F1	0.720	2.320	24.100	 F	1	UNK0	0.000	
31	  C5	1.720	2.030	24.950	C.2	1	UNK0	0.000	
32	  C6	2.960	2.710	24.900	C.2	1	UNK0	0.000	
33	  C7	3.870	2.520	25.940	C.2	1	UNK0	0.000	
34	  C8	3.570	1.650	26.990	C.2	1	UNK0	0.000	
35	  C9	2.330	1.010	27.060	C.2	1	UNK0	0.000	
36	 C10	1.400	1.220	26.030	C.2	1	UNK0	0.000	
37	 C11	1.980	0.230	28.300	C.3	1	UNK0	0.000	
38	 C12	0.920	-1.030	27.950	C.3	1	UNK0	0.000	
39	 C13	-0.540	-0.660	28.670	C.3	1	UNK0	0.000	
40	 C14	-0.320	0.750	29.560	C.3	1	UNK0	0.000	
41	  N2	1.220	1.220	29.330	N.3	1	UNK0	0.000	
42	  N3	2.750	5.360	20.580	N.3	1	UNK0	0.000	
43	  S1	3.400	6.410	19.460	S.o2	1	UNK0	0.000	
44	  O2	2.320	6.680	18.540	O.2	1	UNK0	0.000	
45	  O3	4.060	7.430	20.230	O.2	1	UNK0	0.000	
46	 C15	4.660	5.440	18.580	C.2	1	UNK0	0.000	
47	 C16	4.550	4.040	18.440	C.2	1	UNK0	0.000	
48	 C17	5.640	3.300	17.990	C.2	1	UNK0	0.000	
49	 C18	6.830	3.940	17.650	C.2	1	UNK0	0.000	
50	 C19	6.910	5.360	17.690	C.2	1	UNK0	0.000	
51	 C20	5.840	6.100	18.180	C.2	1	UNK0	0.000	
52	 C21	7.970	3.200	17.320	C.2	1	UNK0	0.000	
53	 C22	9.170	3.860	17.040	C.2	1	UNK0	0.000	
54	 Cl1	10.600	2.940	16.850	Cl	1	UNK0	0.000	
55	 C23	9.240	5.250	17.010	C.2	1	UNK0	0.000	
56	 C24	8.100	6.000	17.320	C.2	1	UNK0	0.000	
@<TRIPOS>BOND
1 24 25 1
2 24 29 1
3 24 32 1
4 25 26 2
5 25 27 1
6 15 27 1
7 27 28 1
8 27 42 1
9 10 28 1
10 14 28 1
11 28 29 1
12 11 29 1
13 12 29 1
14 30 31 1
15 31 32 1
16 31 36 2
17 32 33 2
18 5 33 1
19 33 34 1
20 9 34 1
21 34 35 2
22 35 36 1
23 35 37 1
24 17 36 1
25 16 37 1
26 37 38 1
27 37 41 1
28 4 38 1
29 18 38 1
30 38 39 1
31 20 39 1
32 21 39 1
33 39 40 1
34 13 40 1
35 19 40 1
36 40 41 1
37 3 41 1
38 1 42 1
39 42 43 1
40 43 44 2
41 43 45 2
42 43 46 1
43 46 47 2
44 46 51 1
45 23 47 1
46 47 48 1
47 2 48 1
48 48 49 2
49 49 50 1
50 49 52 1
51 50 51 2
52 50 56 1
53 6 51 1
54 7 52 1
55 52 53 2
56 53 54 1
57 53 55 1
58 8 55 1
59 55 56 2
60 22 56 1
@<TRIPOS>SUBSTRUCTURE
1	UNK0	1	GROUP	1 ****	UNK
