# created with PyMOL 2.5.0
@<TRIPOS>MOLECULE
MOL
33 37 1                 
SMALL
USER_CHARGES
@<TRIPOS>ATOM
1	  N1	4.096	0.858	14.426	N.pl3	1	UNK0	0.000	
2	  C1	5.609	0.718	14.566	C.2	1	UNK0	0.000	
3	  O1	6.344	-0.134	14.083	O.2	1	UNK0	0.000	
4	  C2	6.195	2.051	15.458	C.3	1	UNK0	0.000	
5	  C3	4.843	3.036	15.713	C.3	1	UNK0	0.000	
6	  C4	3.519	2.258	15.032	C.3	1	UNK0	0.000	
7	  F1	4.581	-2.070	14.071	 F	1	UNK0	0.000	
8	  C5	3.450	-1.470	13.672	C.2	1	UNK0	0.000	
9	  C6	3.184	-0.093	13.883	C.2	1	UNK0	0.000	
10	  C7	1.883	0.368	13.595	C.2	1	UNK0	0.000	
11	  C8	0.905	-0.476	13.090	C.2	1	UNK0	0.000	
12	  C9	1.181	-1.832	12.860	C.2	1	UNK0	0.000	
13	 C10	2.461	-2.314	13.177	C.2	1	UNK0	0.000	
14	 C11	0.116	-2.760	12.350	C.3	1	UNK0	0.000	
15	 C12	-0.716	-2.080	11.055	C.3	1	UNK0	0.000	
16	 C13	-2.327	-1.949	11.501	C.3	1	UNK0	0.000	
17	 C14	-2.479	-2.618	13.039	C.3	1	UNK0	0.000	
18	  N2	-0.988	-3.051	13.506	N.3	1	UNK0	0.000	
19	  N3	7.249	2.887	14.805	N.3	1	UNK0	0.000	
20	  S1	8.482	3.329	15.829	S.o2	1	UNK0	0.000	
21	  O2	9.326	4.245	15.097	O.2	1	UNK0	0.000	
22	  O3	7.874	3.681	17.085	O.2	1	UNK0	0.000	
23	 C15	9.367	1.777	16.047	C.2	1	UNK0	0.000	
24	 C16	8.740	0.317	15.913	C.2	1	UNK0	0.000	
25	 C17	8.215	-1.032	16.286	C.2	1	UNK0	0.000	
26	 C18	8.152	-1.506	17.640	C.2	1	UNK0	0.000	
27	 C19	8.671	-0.587	18.654	C.2	1	UNK0	0.000	
28	 C20	9.206	0.804	18.052	C.2	1	UNK0	0.000	
29	 C21	7.554	-2.738	17.940	C.2	1	UNK0	0.000	
30	 C22	7.224	-2.623	19.287	C.2	1	UNK0	0.000	
31	 Cl1	6.846	-3.646	19.800	Cl	1	UNK0	0.000	
32	 C23	7.416	-1.831	20.345	C.2	1	UNK0	0.000	
33	 C24	8.365	-0.962	19.968	C.2	1	UNK0	0.000	
@<TRIPOS>BOND
1 1 2 1
2 1 6 1
3 1 9 1
4 2 3 2
5 2 4 1
6 4 5 1
7 4 19 1
8 5 6 1
9 7 8 1
10 8 9 1
11 8 13 2
12 9 10 2
13 10 11 1
14 11 12 2
15 12 13 1
16 12 14 1
17 14 15 1
18 14 18 1
19 15 16 1
20 16 17 1
21 17 18 1
22 19 20 1
23 20 21 2
24 20 22 2
25 20 23 1
26 23 24 2
27 23 28 1
28 24 25 1
29 25 26 2
30 26 27 1
31 26 29 1
32 27 28 2
33 27 33 1
34 29 30 2
35 30 31 1
36 30 32 1
37 32 33 2
@<TRIPOS>SUBSTRUCTURE
1	UNK0	1	GROUP	1 ****	UNK
