# created with PyMOL 2.5.0
@<TRIPOS>MOLECULE
MOL
33 37 1                 
SMALL
USER_CHARGES
@<TRIPOS>ATOM
1	  N1	4.178	4.331	23.246	N.pl3	1	UNK0	0.000	
2	  C1	4.674	3.560	22.032	C.2	1	UNK0	0.000	
3	  O1	4.125	2.587	21.517	O.2	1	UNK0	0.000	
4	  C2	5.806	4.517	21.202	C.3	1	UNK0	0.000	
5	  C3	5.946	5.933	22.117	C.3	1	UNK0	0.000	
6	  C4	4.834	5.819	23.380	C.3	1	UNK0	0.000	
7	  F1	3.422	1.553	23.862	 F	1	UNK0	0.000	
8	  C5	2.670	2.596	24.248	C.2	1	UNK0	0.000	
9	  C6	3.084	3.945	24.068	C.2	1	UNK0	0.000	
10	  C7	2.344	4.938	24.711	C.2	1	UNK0	0.000	
11	  C8	1.149	4.638	25.386	C.2	1	UNK0	0.000	
12	  C9	0.704	3.312	25.477	C.2	1	UNK0	0.000	
13	 C10	1.495	2.295	24.933	C.2	1	UNK0	0.000	
14	 C11	-0.642	2.994	26.063	C.3	1	UNK0	0.000	
15	 C12	-1.839	3.843	25.242	C.3	1	UNK0	0.000	
16	 C13	-2.577	4.868	26.347	C.3	1	UNK0	0.000	
17	 C14	-1.868	4.582	27.843	C.3	1	UNK0	0.000	
18	  N2	-0.725	3.453	27.623	N.3	1	UNK0	0.000	
19	  N3	5.328	4.908	19.839	N.3	1	UNK0	0.000	
20	  S1	6.550	5.274	18.776	S.o2	1	UNK0	0.000	
21	  O2	5.902	5.897	17.643	O.2	1	UNK0	0.000	
22	  O3	7.603	5.878	19.554	O.2	1	UNK0	0.000	
23	 C15	7.064	3.616	18.238	C.2	1	UNK0	0.000	
24	 C16	6.143	2.777	17.590	C.2	1	UNK0	0.000	
25	 C17	6.536	1.503	17.188	C.2	1	UNK0	0.000	
26	 C18	7.848	1.059	17.413	C.2	1	UNK0	0.000	
27	 C19	8.779	1.927	18.052	C.2	1	UNK0	0.000	
28	 C20	8.386	3.191	18.464	C.2	1	UNK0	0.000	
29	 C21	8.231	-0.226	17.031	C.2	1	UNK0	0.000	
30	 C22	9.534	-0.652	17.277	C.2	1	UNK0	0.000	
31	 Cl1	9.988	-2.266	16.882	Cl	1	UNK0	0.000	
32	 C23	10.464	0.188	17.885	C.2	1	UNK0	0.000	
33	 C24	10.092	1.484	18.258	C.2	1	UNK0	0.000	
@<TRIPOS>BOND
1 1 2 1
2 1 6 1
3 1 9 1
4 2 3 2
5 2 4 1
6 4 5 1
7 4 19 1
8 5 6 1
9 7 8 1
10 8 9 1
11 8 13 2
12 9 10 2
13 10 11 1
14 11 12 2
15 12 13 1
16 12 14 1
17 14 15 1
18 14 18 1
19 15 16 1
20 16 17 1
21 17 18 1
22 19 20 1
23 20 21 2
24 20 22 2
25 20 23 1
26 23 24 2
27 23 28 1
28 24 25 1
29 25 26 2
30 26 27 1
31 26 29 1
32 27 28 2
33 27 33 1
34 29 30 2
35 30 31 1
36 30 32 1
37 32 33 2
@<TRIPOS>SUBSTRUCTURE
1	UNK0	1	GROUP	1 ****	UNK
