# created with PyMOL 2.5.0
@<TRIPOS>MOLECULE
MOL
33 37 1                 
SMALL
USER_CHARGES
@<TRIPOS>ATOM
1	  N1	2.771	3.153	23.366	N.pl3	1	UNK0	0.000	
2	  C1	2.410	3.064	21.900	C.2	1	UNK0	0.000	
3	  O1	1.732	2.201	21.351	O.2	1	UNK0	0.000	
4	  C2	3.214	4.310	21.067	C.3	1	UNK0	0.000	
5	  C3	3.971	5.220	22.269	C.3	1	UNK0	0.000	
6	  C4	3.784	4.375	23.723	C.3	1	UNK0	0.000	
7	  F1	0.087	2.060	23.565	 F	1	UNK0	0.000	
8	  C5	1.068	1.650	24.387	C.2	1	UNK0	0.000	
9	  C6	2.353	2.241	24.366	C.2	1	UNK0	0.000	
10	  C7	3.252	1.926	25.385	C.2	1	UNK0	0.000	
11	  C8	2.896	1.019	26.385	C.2	1	UNK0	0.000	
12	  C9	1.613	0.466	26.429	C.2	1	UNK0	0.000	
13	 C10	0.696	0.803	25.421	C.2	1	UNK0	0.000	
14	 C11	1.214	-0.358	27.624	C.3	1	UNK0	0.000	
15	 C12	0.065	-1.516	27.211	C.3	1	UNK0	0.000	
16	 C13	-1.362	-1.086	27.964	C.3	1	UNK0	0.000	
17	 C14	-1.037	0.250	28.933	C.3	1	UNK0	0.000	
18	  N2	0.532	0.621	28.717	N.3	1	UNK0	0.000	
19	  N3	2.313	5.149	20.210	N.3	1	UNK0	0.000	
20	  S1	3.032	6.214	19.147	S.o2	1	UNK0	0.000	
21	  O2	1.970	6.614	18.254	O.2	1	UNK0	0.000	
22	  O3	3.767	7.137	19.969	O.2	1	UNK0	0.000	
23	 C15	4.215	5.209	18.200	C.2	1	UNK0	0.000	
24	 C16	4.004	3.832	17.980	C.2	1	UNK0	0.000	
25	 C17	5.035	3.043	17.478	C.2	1	UNK0	0.000	
26	 C18	6.267	3.615	17.165	C.2	1	UNK0	0.000	
27	 C19	6.449	5.021	17.287	C.2	1	UNK0	0.000	
28	 C20	5.437	5.806	17.829	C.2	1	UNK0	0.000	
29	 C21	7.349	2.817	16.782	C.2	1	UNK0	0.000	
30	 C22	8.592	3.404	16.530	C.2	1	UNK0	0.000	
31	 Cl1	9.951	2.397	16.274	Cl	1	UNK0	0.000	
32	 C23	8.761	4.785	16.581	C.2	1	UNK0	0.000	
33	 C24	7.680	5.595	16.944	C.2	1	UNK0	0.000	
@<TRIPOS>BOND
1 1 2 1
2 1 6 1
3 1 9 1
4 2 3 2
5 2 4 1
6 4 5 1
7 4 19 1
8 5 6 1
9 7 8 1
10 8 9 1
11 8 13 2
12 9 10 2
13 10 11 1
14 11 12 2
15 12 13 1
16 12 14 1
17 14 15 1
18 14 18 1
19 15 16 1
20 16 17 1
21 17 18 1
22 19 20 1
23 20 21 2
24 20 22 2
25 20 23 1
26 23 24 2
27 23 28 1
28 24 25 1
29 25 26 2
30 26 27 1
31 26 29 1
32 27 28 2
33 27 33 1
34 29 30 2
35 30 31 1
36 30 32 1
37 32 33 2
@<TRIPOS>SUBSTRUCTURE
1	UNK0	1	GROUP	1 ****	UNK
