# created with PyMOL 2.5.0
@<TRIPOS>MOLECULE
MOL
33 37 1                 
SMALL
USER_CHARGES
@<TRIPOS>ATOM
1	  N1	3.296	0.648	22.403	N.pl3	1	UNK0	0.000	
2	  C1	4.350	1.064	21.393	C.2	1	UNK0	0.000	
3	  O1	4.668	0.455	20.389	O.2	1	UNK0	0.000	
4	  C2	4.889	2.612	21.832	C.3	1	UNK0	0.000	
5	  C3	3.780	3.104	23.001	C.3	1	UNK0	0.000	
6	  C4	3.024	1.724	23.553	C.3	1	UNK0	0.000	
7	  F1	1.975	-0.657	20.222	 F	1	UNK0	0.000	
8	  C5	2.252	-1.317	21.357	C.2	1	UNK0	0.000	
9	  C6	2.822	-0.666	22.467	C.2	1	UNK0	0.000	
10	  C7	3.029	-1.377	23.651	C.2	1	UNK0	0.000	
11	  C8	2.666	-2.719	23.725	C.2	1	UNK0	0.000	
12	  C9	2.025	-3.362	22.655	C.2	1	UNK0	0.000	
13	 C10	1.848	-2.640	21.461	C.2	1	UNK0	0.000	
14	 C11	1.632	-4.815	22.777	C.3	1	UNK0	0.000	
15	 C12	0.329	-5.182	21.796	C.3	1	UNK0	0.000	
16	 C13	-1.006	-5.179	22.759	C.3	1	UNK0	0.000	
17	 C14	-0.476	-5.062	24.343	C.3	1	UNK0	0.000	
18	  N2	1.135	-5.123	24.291	N.3	1	UNK0	0.000	
19	  N3	4.880	3.593	20.742	N.3	1	UNK0	0.000	
20	  S1	6.352	3.997	20.105	S.o2	1	UNK0	0.000	
21	  O2	5.961	5.094	19.254	O.2	1	UNK0	0.000	
22	  O3	7.265	4.121	21.211	O.2	1	UNK0	0.000	
23	 C15	6.815	2.560	19.092	C.2	1	UNK0	0.000	
24	 C16	5.943	2.066	18.102	C.2	1	UNK0	0.000	
25	 C17	6.343	0.986	17.313	C.2	1	UNK0	0.000	
26	 C18	7.615	0.411	17.475	C.2	1	UNK0	0.000	
27	 C19	8.497	0.935	18.455	C.2	1	UNK0	0.000	
28	 C20	8.087	1.995	19.264	C.2	1	UNK0	0.000	
29	 C21	8.025	-0.659	16.676	C.2	1	UNK0	0.000	
30	 C22	9.307	-1.204	16.837	C.2	1	UNK0	0.000	
31	 Cl1	9.800	-2.572	15.906	Cl	1	UNK0	0.000	
32	 C23	10.189	-0.669	17.788	C.2	1	UNK0	0.000	
33	 C24	9.779	0.391	18.587	C.2	1	UNK0	0.000	
@<TRIPOS>BOND
1 1 2 1
2 1 6 1
3 1 9 1
4 2 3 2
5 2 4 1
6 4 5 1
7 4 19 1
8 5 6 1
9 7 8 1
10 8 9 1
11 8 13 2
12 9 10 2
13 10 11 1
14 11 12 2
15 12 13 1
16 12 14 1
17 14 15 1
18 14 18 1
19 15 16 1
20 16 17 1
21 17 18 1
22 19 20 1
23 20 21 2
24 20 22 2
25 20 23 1
26 23 24 2
27 23 28 1
28 24 25 1
29 25 26 2
30 26 27 1
31 26 29 1
32 27 28 2
33 27 33 1
34 29 30 2
35 30 31 1
36 30 32 1
37 32 33 2
@<TRIPOS>SUBSTRUCTURE
1	UNK0	1	GROUP	1 ****	UNK
