# created with PyMOL 2.5.0
@<TRIPOS>MOLECULE
MOL
33 37 1                 
SMALL
USER_CHARGES
@<TRIPOS>ATOM
1	  N1	-3.582	1.420	17.165	N.pl3	1	UNK0	0.000	
2	  C1	-3.106	2.983	17.926	C.2	1	UNK0	0.000	
3	  O1	-4.681	3.018	16.974	O.2	1	UNK0	0.000	
4	  C2	-4.649	4.481	19.694	C.3	1	UNK0	0.000	
5	  C3	0.319	8.195	18.750	C.3	1	UNK0	0.000	
6	  C4	-4.731	1.605	18.785	C.3	1	UNK0	0.000	
7	  F1	-9.115	-2.477	20.093	 F	1	UNK0	0.000	
8	  C5	-9.386	-1.668	21.244	C.2	1	UNK0	0.000	
9	  C6	-7.588	-0.050	20.087	C.2	1	UNK0	0.000	
10	  C7	-9.263	-0.400	22.738	C.2	1	UNK0	0.000	
11	  C8	-9.949	-2.580	24.858	C.2	1	UNK0	0.000	
12	  C9	-12.164	-4.169	25.180	C.2	1	UNK0	0.000	
13	 C10	-10.896	-2.940	23.019	C.2	1	UNK0	0.000	
14	 C11	-10.777	-5.199	26.072	C.3	1	UNK0	0.000	
15	 C12	-10.702	-6.190	24.818	C.3	1	UNK0	0.000	
16	 C13	-9.559	-6.774	22.939	C.3	1	UNK0	0.000	
17	 C14	-8.917	-5.371	22.382	C.3	1	UNK0	0.000	
18	  N2	-9.112	-4.653	23.995	N.3	1	UNK0	0.000	
19	  N3	-5.688	6.223	19.018	N.3	1	UNK0	0.000	
20	  S1	-6.302	7.607	20.378	S.o2	1	UNK0	0.000	
21	  O2	-3.891	3.563	19.511	O.2	1	UNK0	0.000	
22	  O3	-6.763	6.402	20.167	O.2	1	UNK0	0.000	
23	 C15	2.731	-4.287	16.096	C.2	1	UNK0	0.000	
24	 C16	6.836	-5.904	17.642	C.2	1	UNK0	0.000	
25	 C17	6.242	-7.017	17.240	C.2	1	UNK0	0.000	
26	 C18	4.675	-7.102	17.392	C.2	1	UNK0	0.000	
27	 C19	4.135	-5.844	17.503	C.2	1	UNK0	0.000	
28	 C20	5.588	-5.471	16.885	C.2	1	UNK0	0.000	
29	 C21	4.030	-8.187	17.060	C.2	1	UNK0	0.000	
30	 C22	3.602	-9.796	15.169	C.2	1	UNK0	0.000	
31	 Cl1	4.008	-9.300	17.251	Cl	1	UNK0	0.000	
32	 C23	-3.919	-5.376	15.268	C.2	1	UNK0	0.000	
33	 C24	2.706	-5.785	17.679	C.2	1	UNK0	0.000	
@<TRIPOS>BOND
1 1 2 1
2 1 6 1
3 1 9 1
4 2 3 2
5 2 4 1
6 4 5 1
7 4 19 1
8 5 6 1
9 7 8 1
10 8 9 1
11 8 13 2
12 9 10 2
13 10 11 1
14 11 12 2
15 12 13 1
16 12 14 1
17 14 15 1
18 14 18 1
19 15 16 1
20 16 17 1
21 17 18 1
22 19 20 1
23 20 21 2
24 20 22 2
25 20 23 1
26 23 24 2
27 23 28 1
28 24 25 1
29 25 26 2
30 26 27 1
31 26 29 1
32 27 28 2
33 27 33 1
34 29 30 2
35 30 31 1
36 30 32 1
37 32 33 2
@<TRIPOS>SUBSTRUCTURE
1	UNK0	1	GROUP	1 ****	UNK
