# created with PyMOL 2.5.0
@<TRIPOS>MOLECULE
MOL
56 60 1                 
SMALL
USER_CHARGES
@<TRIPOS>ATOM
1	 H17	6.460	9.050	20.360	 H	1	UNK0	0.000	
2	 H19	2.000	7.570	19.520	 H	1	UNK0	0.000	
3	 H16	3.290	1.200	25.790	 H	1	UNK0	0.000	
4	 H10	4.330	-0.760	23.190	 H	1	UNK0	0.000	
5	 H06	7.750	4.730	24.060	 H	1	UNK0	0.000	
6	 H20	6.090	6.140	17.050	 H	1	UNK0	0.000	
7	 H21	0.910	5.460	18.910	 H	1	UNK0	0.000	
8	 H22	3.030	2.560	16.560	 H	1	UNK0	0.000	
9	 H07	6.660	2.760	25.070	 H	1	UNK0	0.000	
10	 H02	8.270	9.090	22.000	 H	1	UNK0	0.000	
11	 H05	7.210	7.340	23.390	 H	1	UNK0	0.000	
12	 H04	8.740	6.420	23.290	 H	1	UNK0	0.000	
13	 H15	1.340	2.160	23.820	 H	1	UNK0	0.000	
14	 H03	9.670	8.060	21.730	 H	1	UNK0	0.000	
15	 H01	8.950	7.610	19.460	 H	1	UNK0	0.000	
16	 H09	5.300	0.830	24.770	 H	1	UNK0	0.000	
17	 H08	3.890	2.610	21.780	 H	1	UNK0	0.000	
18	 H11	4.480	0.460	21.920	 H	1	UNK0	0.000	
19	 H14	1.260	0.740	24.870	 H	1	UNK0	0.000	
20	 H13	2.030	0.780	21.950	 H	1	UNK0	0.000	
21	 H12	1.950	-0.670	22.970	 H	1	UNK0	0.000	
22	 H23	5.010	4.060	16.450	 H	1	UNK0	0.000	
23	 H18	3.960	9.050	19.470	 H	1	UNK0	0.000	
24	  N1	7.210	5.840	21.750	N.pl3	1	UNK0	0.000	
25	  C1	7.320	6.180	20.270	C.2	1	UNK0	0.000	
26	  O1	7.010	5.470	19.320	O.2	1	UNK0	0.000	
27	  C2	8.080	7.700	20.120	C.3	1	UNK0	0.000	
28	  C3	8.580	8.080	21.680	C.3	1	UNK0	0.000	
29	  C4	7.950	6.910	22.720	C.3	1	UNK0	0.000	
30	  F1	4.810	4.620	20.580	 F	1	UNK0	0.000	
31	  C5	5.390	4.120	21.680	C.2	1	UNK0	0.000	
32	  C6	6.500	4.750	22.300	C.2	1	UNK0	0.000	
33	  C7	6.900	4.270	23.560	C.2	1	UNK0	0.000	
34	  C8	6.290	3.160	24.130	C.2	1	UNK0	0.000	
35	  C9	5.220	2.520	23.490	C.2	1	UNK0	0.000	
36	 C10	4.760	3.040	22.270	C.2	1	UNK0	0.000	
37	 C11	4.580	1.320	24.110	C.3	1	UNK0	0.000	
38	 C12	4.050	0.260	22.910	C.3	1	UNK0	0.000	
39	 C13	2.370	0.330	22.890	C.3	1	UNK0	0.000	
40	 C14	1.900	1.290	24.180	C.3	1	UNK0	0.000	
41	  N2	3.250	1.780	24.940	N.3	1	UNK0	0.000	
42	  N3	7.220	8.840	19.690	N.3	1	UNK0	0.000	
43	  S1	6.580	8.840	18.160	S.o2	1	UNK0	0.000	
44	  O2	6.020	10.160	17.970	O.2	1	UNK0	0.000	
45	  O3	7.590	8.290	17.280	O.2	1	UNK0	0.000	
46	 C15	5.170	7.690	18.270	C.2	1	UNK0	0.000	
47	 C16	4.000	8.100	18.950	C.2	1	UNK0	0.000	
48	 C17	2.890	7.260	18.980	C.2	1	UNK0	0.000	
49	 C18	2.910	6.020	18.320	C.2	1	UNK0	0.000	
50	 C19	4.080	5.630	17.610	C.2	1	UNK0	0.000	
51	 C20	5.190	6.470	17.570	C.2	1	UNK0	0.000	
52	 C21	1.810	5.170	18.370	C.2	1	UNK0	0.000	
53	 C22	1.860	3.930	17.730	C.2	1	UNK0	0.000	
54	 Cl1	0.510	2.870	17.820	Cl	1	UNK0	0.000	
55	 C23	3.010	3.530	17.040	C.2	1	UNK0	0.000	
56	 C24	4.110	4.380	16.980	C.2	1	UNK0	0.000	
@<TRIPOS>BOND
1 24 25 1
2 24 29 1
3 24 32 1
4 25 26 2
5 25 27 1
6 15 27 1
7 27 28 1
8 27 42 1
9 10 28 1
10 14 28 1
11 28 29 1
12 11 29 1
13 12 29 1
14 30 31 1
15 31 32 1
16 31 36 2
17 32 33 2
18 5 33 1
19 33 34 1
20 9 34 1
21 34 35 2
22 35 36 1
23 35 37 1
24 17 36 1
25 16 37 1
26 37 38 1
27 37 41 1
28 4 38 1
29 18 38 1
30 38 39 1
31 20 39 1
32 21 39 1
33 39 40 1
34 13 40 1
35 19 40 1
36 40 41 1
37 3 41 1
38 1 42 1
39 42 43 1
40 43 44 2
41 43 45 2
42 43 46 1
43 46 47 2
44 46 51 1
45 23 47 1
46 47 48 1
47 2 48 1
48 48 49 2
49 49 50 1
50 49 52 1
51 50 51 2
52 50 56 1
53 6 51 1
54 7 52 1
55 52 53 2
56 53 54 1
57 53 55 1
58 8 55 1
59 55 56 2
60 22 56 1
@<TRIPOS>SUBSTRUCTURE
1	UNK0	1	GROUP	1 ****	UNK
