# created with PyMOL 2.5.0
@<TRIPOS>MOLECULE
MOL
56 60 1                 
SMALL
USER_CHARGES
@<TRIPOS>ATOM
1	 H17	5.330	4.520	19.980	 H	1	UNK0	0.000	
2	 H19	6.390	1.060	17.410	 H	1	UNK0	0.000	
3	 H16	-0.520	3.320	28.730	 H	1	UNK0	0.000	
4	 H10	-2.050	3.710	25.420	 H	1	UNK0	0.000	
5	 H06	3.180	6.520	25.100	 H	1	UNK0	0.000	
6	 H20	9.680	4.140	19.560	 H	1	UNK0	0.000	
7	 H21	8.100	-0.690	17.340	 H	1	UNK0	0.000	
8	 H22	12.040	0.100	18.860	 H	1	UNK0	0.000	
9	 H07	1.110	6.030	26.300	 H	1	UNK0	0.000	
10	 H02	6.340	7.240	21.990	 H	1	UNK0	0.000	
11	 H05	4.610	7.050	23.720	 H	1	UNK0	0.000	
12	 H04	5.860	6.440	24.850	 H	1	UNK0	0.000	
13	 H15	-0.900	6.200	28.710	 H	1	UNK0	0.000	
14	 H03	7.520	6.440	23.030	 H	1	UNK0	0.000	
15	 H01	7.310	4.350	21.750	 H	1	UNK0	0.000	
16	 H09	-0.310	2.530	26.610	 H	1	UNK0	0.000	
17	 H08	1.730	1.810	25.670	 H	1	UNK0	0.000	
18	 H11	-0.900	4.960	24.910	 H	1	UNK0	0.000	
19	 H14	-2.100	4.940	29.070	 H	1	UNK0	0.000	
20	 H13	-1.880	6.520	26.500	 H	1	UNK0	0.000	
21	 H12	-3.120	5.320	26.870	 H	1	UNK0	0.000	
22	 H23	11.380	2.420	19.410	 H	1	UNK0	0.000	
23	 H18	5.700	3.360	18.000	 H	1	UNK0	0.000	
24	  N1	4.730	4.810	23.800	N.pl3	1	UNK0	0.000	
25	  C1	5.230	3.990	22.620	C.2	1	UNK0	0.000	
26	  O1	4.680	3.000	22.140	O.2	1	UNK0	0.000	
27	  C2	6.370	4.910	21.760	C.3	1	UNK0	0.000	
28	  C3	6.510	6.360	22.620	C.3	1	UNK0	0.000	
29	  C4	5.390	6.300	23.880	C.3	1	UNK0	0.000	
30	  F1	3.960	2.060	24.520	 F	1	UNK0	0.000	
31	  C5	3.210	3.120	24.860	C.2	1	UNK0	0.000	
32	  C6	3.630	4.460	24.630	C.2	1	UNK0	0.000	
33	  C7	2.890	5.480	25.230	C.2	1	UNK0	0.000	
34	  C8	1.690	5.210	25.910	C.2	1	UNK0	0.000	
35	  C9	1.240	3.890	26.050	C.2	1	UNK0	0.000	
36	 C10	2.030	2.850	25.550	C.2	1	UNK0	0.000	
37	 C11	-0.110	3.600	26.640	C.3	1	UNK0	0.000	
38	 C12	-1.300	4.420	25.780	C.3	1	UNK0	0.000	
39	 C13	-2.040	5.490	26.840	C.3	1	UNK0	0.000	
40	 C14	-1.340	5.260	28.350	C.3	1	UNK0	0.000	
41	  N2	-0.200	4.120	28.180	N.3	1	UNK0	0.000	
42	  N3	5.900	5.250	20.380	N.3	1	UNK0	0.000	
43	  S1	7.130	5.570	19.310	S.o2	1	UNK0	0.000	
44	  O2	6.490	6.150	18.150	O.2	1	UNK0	0.000	
45	  O3	8.180	6.200	20.070	O.2	1	UNK0	0.000	
46	 C15	7.640	3.890	18.840	C.2	1	UNK0	0.000	
47	 C16	6.720	3.030	18.220	C.2	1	UNK0	0.000	
48	 C17	7.110	1.740	17.870	C.2	1	UNK0	0.000	
49	 C18	8.420	1.300	18.120	C.2	1	UNK0	0.000	
50	 C19	9.350	2.190	18.730	C.2	1	UNK0	0.000	
51	 C20	8.960	3.470	19.090	C.2	1	UNK0	0.000	
52	 C21	8.800	0.000	17.790	C.2	1	UNK0	0.000	
53	 C22	10.100	-0.420	18.060	C.2	1	UNK0	0.000	
54	 Cl1	10.550	-2.050	17.730	Cl	1	UNK0	0.000	
55	 C23	11.030	0.440	18.640	C.2	1	UNK0	0.000	
56	 C24	10.660	1.750	18.960	C.2	1	UNK0	0.000	
@<TRIPOS>BOND
1 24 25 1
2 24 29 1
3 24 32 1
4 25 26 2
5 25 27 1
6 15 27 1
7 27 28 1
8 27 42 1
9 10 28 1
10 14 28 1
11 28 29 1
12 11 29 1
13 12 29 1
14 30 31 1
15 31 32 1
16 31 36 2
17 32 33 2
18 5 33 1
19 33 34 1
20 9 34 1
21 34 35 2
22 35 36 1
23 35 37 1
24 17 36 1
25 16 37 1
26 37 38 1
27 37 41 1
28 4 38 1
29 18 38 1
30 38 39 1
31 20 39 1
32 21 39 1
33 39 40 1
34 13 40 1
35 19 40 1
36 40 41 1
37 3 41 1
38 1 42 1
39 42 43 1
40 43 44 2
41 43 45 2
42 43 46 1
43 46 47 2
44 46 51 1
45 23 47 1
46 47 48 1
47 2 48 1
48 48 49 2
49 49 50 1
50 49 52 1
51 50 51 2
52 50 56 1
53 6 51 1
54 7 52 1
55 52 53 2
56 53 54 1
57 53 55 1
58 8 55 1
59 55 56 2
60 22 56 1
@<TRIPOS>SUBSTRUCTURE
1	UNK0	1	GROUP	1 ****	UNK
