# created with PyMOL 2.5.0
@<TRIPOS>MOLECULE
MOL
56 60 1                 
SMALL
USER_CHARGES
@<TRIPOS>ATOM
1	 H17	4.250	1.460	20.890	 H	1	UNK0	0.000	
2	 H19	4.500	5.390	16.710	 H	1	UNK0	0.000	
3	 H16	0.270	-4.280	29.410	 H	1	UNK0	0.000	
4	 H10	2.420	-6.690	27.250	 H	1	UNK0	0.000	
5	 H06	1.220	-0.210	26.020	 H	1	UNK0	0.000	
6	 H20	6.270	1.470	19.250	 H	1	UNK0	0.000	
7	 H21	4.690	4.110	14.630	 H	1	UNK0	0.000	
8	 H22	6.090	0.070	14.760	 H	1	UNK0	0.000	
9	 H07	0.490	-2.050	27.450	 H	1	UNK0	0.000	
10	 H02	2.460	1.820	21.980	 H	1	UNK0	0.000	
11	 H05	1.240	0.530	23.630	 H	1	UNK0	0.000	
12	 H04	1.880	1.510	24.990	 H	1	UNK0	0.000	
13	 H15	-1.700	-5.400	27.600	 H	1	UNK0	0.000	
14	 H03	2.770	3.110	23.100	 H	1	UNK0	0.000	
15	 H01	5.040	2.360	23.610	 H	1	UNK0	0.000	
16	 H09	2.370	-4.630	28.520	 H	1	UNK0	0.000	
17	 H08	3.690	-4.510	25.950	 H	1	UNK0	0.000	
18	 H11	1.790	-5.880	25.800	 H	1	UNK0	0.000	
19	 H14	-1.030	-6.200	29.040	 H	1	UNK0	0.000	
20	 H13	-0.380	-6.880	26.150	 H	1	UNK0	0.000	
21	 H12	0.240	-7.720	27.600	 H	1	UNK0	0.000	
22	 H23	6.520	0.240	17.180	 H	1	UNK0	0.000	
23	 H18	4.590	5.460	19.170	 H	1	UNK0	0.000	
24	  N1	3.250	-0.150	24.370	N.pl3	1	UNK0	0.000	
25	  C1	4.620	0.160	23.770	C.2	1	UNK0	0.000	
26	  O1	5.660	-0.480	23.940	O.2	1	UNK0	0.000	
27	  C2	4.510	1.660	22.950	C.3	1	UNK0	0.000	
28	  C3	2.880	2.040	22.970	C.3	1	UNK0	0.000	
29	  C4	2.130	0.990	24.060	C.3	1	UNK0	0.000	
30	  F1	4.560	-2.820	24.290	 F	1	UNK0	0.000	
31	  C5	3.580	-2.520	25.170	C.2	1	UNK0	0.000	
32	  C6	2.900	-1.280	25.160	C.2	1	UNK0	0.000	
33	  C7	1.770	-1.150	25.980	C.2	1	UNK0	0.000	
34	  C8	1.360	-2.190	26.810	C.2	1	UNK0	0.000	
35	  C9	2.030	-3.420	26.820	C.2	1	UNK0	0.000	
36	 C10	3.150	-3.560	25.990	C.2	1	UNK0	0.000	
37	 C11	1.630	-4.560	27.720	C.3	1	UNK0	0.000	
38	 C12	1.620	-6.020	26.880	C.3	1	UNK0	0.000	
39	 C13	0.130	-6.730	27.120	C.3	1	UNK0	0.000	
40	 C14	-0.760	-5.700	28.090	C.3	1	UNK0	0.000	
41	  N2	0.160	-4.410	28.390	N.3	1	UNK0	0.000	
42	  N3	4.960	1.800	21.520	N.3	1	UNK0	0.000	
43	  S1	5.110	3.430	21.140	S.o2	1	UNK0	0.000	
44	  O2	3.770	3.950	21.270	O.2	1	UNK0	0.000	
45	  O3	6.210	3.930	21.930	O.2	1	UNK0	0.000	
46	 C15	5.470	3.480	19.370	C.2	1	UNK0	0.000	
47	 C16	4.980	4.590	18.650	C.2	1	UNK0	0.000	
48	 C17	4.910	4.540	17.260	C.2	1	UNK0	0.000	
49	 C18	5.280	3.380	16.580	C.2	1	UNK0	0.000	
50	 C19	5.810	2.280	17.310	C.2	1	UNK0	0.000	
51	 C20	5.920	2.340	18.700	C.2	1	UNK0	0.000	
52	 C21	5.090	3.280	15.200	C.2	1	UNK0	0.000	
53	 C22	5.390	2.080	14.550	C.2	1	UNK0	0.000	
54	 Cl1	5.070	1.910	12.860	Cl	1	UNK0	0.000	
55	 C23	5.900	1.000	15.270	C.2	1	UNK0	0.000	
56	 C24	6.130	1.100	16.640	C.2	1	UNK0	0.000	
@<TRIPOS>BOND
1 24 25 1
2 24 29 1
3 24 32 1
4 25 26 2
5 25 27 1
6 15 27 1
7 27 28 1
8 27 42 1
9 10 28 1
10 14 28 1
11 28 29 1
12 11 29 1
13 12 29 1
14 30 31 1
15 31 32 1
16 31 36 2
17 32 33 2
18 5 33 1
19 33 34 1
20 9 34 1
21 34 35 2
22 35 36 1
23 35 37 1
24 17 36 1
25 16 37 1
26 37 38 1
27 37 41 1
28 4 38 1
29 18 38 1
30 38 39 1
31 20 39 1
32 21 39 1
33 39 40 1
34 13 40 1
35 19 40 1
36 40 41 1
37 3 41 1
38 1 42 1
39 42 43 1
40 43 44 2
41 43 45 2
42 43 46 1
43 46 47 2
44 46 51 1
45 23 47 1
46 47 48 1
47 2 48 1
48 48 49 2
49 49 50 1
50 49 52 1
51 50 51 2
52 50 56 1
53 6 51 1
54 7 52 1
55 52 53 2
56 53 54 1
57 53 55 1
58 8 55 1
59 55 56 2
60 22 56 1
@<TRIPOS>SUBSTRUCTURE
1	UNK0	1	GROUP	1 ****	UNK
