# created with PyMOL 2.5.0
@<TRIPOS>MOLECULE
MOL
33 37 1                 
SMALL
USER_CHARGES
@<TRIPOS>ATOM
1	  N1	3.061	0.133	22.106	N.pl3	1	UNK0	0.000	
2	  C1	3.849	0.885	21.045	C.2	1	UNK0	0.000	
3	  O1	4.565	0.409	20.176	O.2	1	UNK0	0.000	
4	  C2	3.725	2.554	21.372	C.3	1	UNK0	0.000	
5	  C3	2.668	2.673	22.678	C.3	1	UNK0	0.000	
6	  C4	2.308	1.102	23.172	C.3	1	UNK0	0.000	
7	  F1	3.236	-1.899	19.955	 F	1	UNK0	0.000	
8	  C5	3.151	-2.237	21.242	C.2	1	UNK0	0.000	
9	  C6	2.999	-1.284	22.283	C.2	1	UNK0	0.000	
10	  C7	2.744	-1.753	23.580	C.2	1	UNK0	0.000	
11	  C8	2.670	-3.134	23.848	C.2	1	UNK0	0.000	
12	  C9	2.812	-4.066	22.817	C.2	1	UNK0	0.000	
13	 C10	3.057	-3.608	21.519	C.2	1	UNK0	0.000	
14	 C11	2.628	-5.528	23.099	C.3	1	UNK0	0.000	
15	 C12	1.156	-5.762	23.880	C.3	1	UNK0	0.000	
16	 C13	1.484	-6.327	25.420	C.3	1	UNK0	0.000	
17	 C14	3.153	-6.545	25.519	C.3	1	UNK0	0.000	
18	  N2	3.772	-6.090	24.092	N.3	1	UNK0	0.000	
19	  N3	3.223	3.443	20.280	N.3	1	UNK0	0.000	
20	  S1	4.340	4.463	19.577	S.o2	1	UNK0	0.000	
21	  O2	3.597	5.168	18.561	O.2	1	UNK0	0.000	
22	  O3	5.008	5.136	20.672	O.2	1	UNK0	0.000	
23	 C15	5.476	3.295	18.796	C.2	1	UNK0	0.000	
24	 C16	5.285	2.963	17.437	C.2	1	UNK0	0.000	
25	 C17	6.125	2.017	16.835	C.2	1	UNK0	0.000	
26	 C18	7.136	1.394	17.581	C.2	1	UNK0	0.000	
27	 C19	7.347	1.765	18.942	C.2	1	UNK0	0.000	
28	 C20	6.527	2.731	19.535	C.2	1	UNK0	0.000	
29	 C21	7.945	0.417	16.998	C.2	1	UNK0	0.000	
30	 C22	8.926	-0.217	17.753	C.2	1	UNK0	0.000	
31	 Cl1	9.900	-1.448	17.045	Cl	1	UNK0	0.000	
32	 C23	9.128	0.146	19.083	C.2	1	UNK0	0.000	
33	 C24	8.348	1.132	19.678	C.2	1	UNK0	0.000	
@<TRIPOS>BOND
1 1 2 1
2 1 6 1
3 1 9 1
4 2 3 2
5 2 4 1
6 4 5 1
7 4 19 1
8 5 6 1
9 7 8 1
10 8 9 1
11 8 13 2
12 9 10 2
13 10 11 1
14 11 12 2
15 12 13 1
16 12 14 1
17 14 15 1
18 14 18 1
19 15 16 1
20 16 17 1
21 17 18 1
22 19 20 1
23 20 21 2
24 20 22 2
25 20 23 1
26 23 24 2
27 23 28 1
28 24 25 1
29 25 26 2
30 26 27 1
31 26 29 1
32 27 28 2
33 27 33 1
34 29 30 2
35 30 31 1
36 30 32 1
37 32 33 2
@<TRIPOS>SUBSTRUCTURE
1	UNK0	1	GROUP	1 ****	UNK
