# created with PyMOL 2.5.0
@<TRIPOS>MOLECULE
MOL
33 37 1                 
SMALL
USER_CHARGES
@<TRIPOS>ATOM
1	  N1	3.156	3.628	22.937	N.pl3	1	UNK0	0.000	
2	  C1	4.607	3.562	22.449	C.2	1	UNK0	0.000	
3	  O1	5.299	2.576	22.276	O.2	1	UNK0	0.000	
4	  C2	5.098	5.148	22.016	C.3	1	UNK0	0.000	
5	  C3	3.716	6.104	22.207	C.3	1	UNK0	0.000	
6	  C4	2.514	5.122	22.833	C.3	1	UNK0	0.000	
7	  F1	3.914	0.709	23.308	 F	1	UNK0	0.000	
8	  C5	2.714	1.206	23.631	C.2	1	UNK0	0.000	
9	  C6	2.337	2.571	23.448	C.2	1	UNK0	0.000	
10	  C7	1.029	2.933	23.825	C.2	1	UNK0	0.000	
11	  C8	0.146	2.004	24.368	C.2	1	UNK0	0.000	
12	  C9	0.522	0.670	24.542	C.2	1	UNK0	0.000	
13	 C10	1.820	0.286	24.184	C.2	1	UNK0	0.000	
14	 C11	-0.400	-0.333	25.172	C.3	1	UNK0	0.000	
15	 C12	-1.988	-0.108	24.651	C.3	1	UNK0	0.000	
16	 C13	-2.877	0.405	25.980	C.3	1	UNK0	0.000	
17	 C14	-1.848	0.373	27.307	C.3	1	UNK0	0.000	
18	  N2	-0.385	-0.091	26.779	N.3	1	UNK0	0.000	
19	  N3	5.626	5.367	20.630	N.3	1	UNK0	0.000	
20	  S1	7.256	5.159	20.461	S.o2	1	UNK0	0.000	
21	  O2	7.640	6.233	19.574	O.2	1	UNK0	0.000	
22	  O3	7.837	5.055	21.779	O.2	1	UNK0	0.000	
23	 C15	7.507	3.587	19.576	C.2	1	UNK0	0.000	
24	 C16	6.576	2.527	19.635	C.2	1	UNK0	0.000	
25	 C17	6.922	1.269	19.120	C.2	1	UNK0	0.000	
26	 C18	8.188	1.049	18.575	C.2	1	UNK0	0.000	
27	 C19	9.109	2.129	18.487	C.2	1	UNK0	0.000	
28	 C20	8.754	3.388	18.952	C.2	1	UNK0	0.000	
29	 C21	8.593	-0.230	18.170	C.2	1	UNK0	0.000	
30	 C22	9.897	-0.431	17.727	C.2	1	UNK0	0.000	
31	 Cl1	10.441	-2.016	17.307	Cl	1	UNK0	0.000	
32	 C23	10.808	0.628	17.648	C.2	1	UNK0	0.000	
33	 C24	10.404	1.908	18.013	C.2	1	UNK0	0.000	
@<TRIPOS>BOND
1 1 2 1
2 1 6 1
3 1 9 1
4 2 3 2
5 2 4 1
6 4 5 1
7 4 19 1
8 5 6 1
9 7 8 1
10 8 9 1
11 8 13 2
12 9 10 2
13 10 11 1
14 11 12 2
15 12 13 1
16 12 14 1
17 14 15 1
18 14 18 1
19 15 16 1
20 16 17 1
21 17 18 1
22 19 20 1
23 20 21 2
24 20 22 2
25 20 23 1
26 23 24 2
27 23 28 1
28 24 25 1
29 25 26 2
30 26 27 1
31 26 29 1
32 27 28 2
33 27 33 1
34 29 30 2
35 30 31 1
36 30 32 1
37 32 33 2
@<TRIPOS>SUBSTRUCTURE
1	UNK0	1	GROUP	1 ****	UNK
