# created with PyMOL 2.5.0
@<TRIPOS>MOLECULE
BDB50096105
55 58 1                 
SMALL
USER_CHARGES
@<TRIPOS>ATOM
1	 H05	10.840	9.880	23.280	 H	1	UNK0	0.000	
2	 H03	8.380	9.710	22.990	 H	1	UNK0	0.000	
3	 H04	11.990	8.720	25.140	 H	1	UNK0	0.000	
4	 H10	4.900	5.100	23.090	 H	1	UNK0	0.000	
5	 H07	9.120	7.120	28.170	 H	1	UNK0	0.000	
6	 H08	12.710	6.970	26.250	 H	1	UNK0	0.000	
7	 H14	9.800	1.710	19.890	 H	1	UNK0	0.000	
8	 H09	12.540	6.270	27.840	 H	1	UNK0	0.000	
9	 H02	8.210	7.220	26.450	 H	1	UNK0	0.000	
10	 H11	8.370	4.050	19.180	 H	1	UNK0	0.000	
11	 H17	5.530	-0.120	16.000	 H	1	UNK0	0.000	
12	 H18	4.530	-1.010	16.960	 H	1	UNK0	0.000	
13	 H06	10.530	6.360	28.880	 H	1	UNK0	0.000	
14	 H16	10.840	0.040	18.390	 H	1	UNK0	0.000	
15	 H01	3.790	7.190	23.500	 H	1	UNK0	0.000	
16	 H12	6.200	1.060	21.320	 H	1	UNK0	0.000	
17	 H15	9.410	-1.220	16.790	 H	1	UNK0	0.000	
18	 H13	6.990	-0.770	16.690	 H	1	UNK0	0.000	
19	  C1	5.990	7.460	23.780	C.2	1	UNK0	0.000	
20	  N1	6.670	8.320	24.570	N.pl3	1	UNK0	0.000	
21	  N2	5.870	9.060	25.210	N.2	1	UNK0	0.000	
22	  C2	4.620	8.730	24.880	C.2	1	UNK0	0.000	
23	  C3	4.640	7.700	23.970	C.2	1	UNK0	0.000	
24	  C4	8.120	8.440	24.720	C.2	1	UNK0	0.000	
25	  C5	8.790	7.810	25.740	C.2	1	UNK0	0.000	
26	  C6	10.160	7.890	25.930	C.2	1	UNK0	0.000	
27	  C7	8.870	9.190	23.820	C.2	1	UNK0	0.000	
28	  C8	10.910	8.640	25.030	C.2	1	UNK0	0.000	
29	  C9	10.250	9.290	23.980	C.2	1	UNK0	0.000	
30	 C10	10.780	7.150	27.080	C.2	1	UNK0	0.000	
31	  N3	10.100	6.860	28.120	N.pl3	1	UNK0	0.000	
32	  N4	12.140	6.760	27.050	N.pl3	1	UNK0	0.000	
33	 C11	6.480	6.410	22.850	C.2	1	UNK0	0.000	
34	  N5	5.790	5.260	22.640	N.pl3	1	UNK0	0.000	
35	  O1	7.530	6.500	22.250	O.2	1	UNK0	0.000	
36	 C12	6.330	4.300	21.770	C.2	1	UNK0	0.000	
37	  N6	7.180	4.640	20.800	N.2	1	UNK0	0.000	
38	  N7	5.980	3.040	21.950	N.2	1	UNK0	0.000	
39	 C13	7.310	2.410	20.110	C.2	1	UNK0	0.000	
40	 C14	7.680	3.750	19.970	C.2	1	UNK0	0.000	
41	 C15	6.470	2.100	21.150	C.2	1	UNK0	0.000	
42	 C16	7.000	0.710	18.240	C.2	1	UNK0	0.000	
43	 C17	7.820	1.410	19.160	C.2	1	UNK0	0.000	
44	 C18	7.610	-0.220	17.400	C.2	1	UNK0	0.000	
45	 C19	9.180	1.160	19.190	C.2	1	UNK0	0.000	
46	 C20	8.970	-0.470	17.450	C.2	1	UNK0	0.000	
47	 C21	9.760	0.220	18.350	C.2	1	UNK0	0.000	
48	  S1	5.200	0.870	17.990	S.o2	1	UNK0	0.000	
49	  O2	4.310	0.560	19.180	O.2	1	UNK0	0.000	
50	  O3	4.930	2.320	17.650	O.2	1	UNK0	0.000	
51	  N8	4.760	-0.080	16.650	N.3	1	UNK0	0.000	
52	 C22	3.380	9.370	25.420	C.3	1	UNK0	0.000	
53	  F1	2.620	8.420	26.070	 F	1	UNK0	0.000	
54	  F2	2.650	9.910	24.380	 F	1	UNK0	0.000	
55	  F3	3.720	10.370	26.300	 F	1	UNK0	0.000	
@<TRIPOS>BOND
1 19 20 1
2 19 23 2
3 19 33 1
4 20 21 1
5 20 24 1
6 21 22 2
7 22 23 1
8 22 52 1
9 15 23 1
10 24 25 2
11 24 27 1
12 9 25 1
13 25 26 1
14 26 28 2
15 26 30 1
16 2 27 1
17 27 29 2
18 3 28 1
19 28 29 1
20 1 29 1
21 30 31 2
22 30 32 1
23 5 31 1
24 13 31 1
25 6 32 1
26 8 32 1
27 33 34 1
28 33 35 2
29 4 34 1
30 34 36 1
31 36 37 2
32 36 38 1
33 37 40 1
34 38 41 2
35 39 40 2
36 39 41 1
37 39 43 1
38 10 40 1
39 16 41 1
40 42 43 2
41 42 44 1
42 42 48 1
43 43 45 1
44 18 44 1
45 44 46 2
46 7 45 1
47 45 47 2
48 17 46 1
49 46 47 1
50 14 47 1
51 48 49 2
52 48 50 2
53 48 51 1
54 11 51 1
55 12 51 1
56 52 53 1
57 52 54 1
58 52 55 1
@<TRIPOS>SUBSTRUCTURE
1	UNK0	1	GROUP	1 ****	UNK
