# created with PyMOL 2.5.0
@<TRIPOS>MOLECULE
BDB50096105
55 58 1                 
SMALL
USER_CHARGES
@<TRIPOS>ATOM
1	 H05	12.400	9.680	24.460	 H	1	UNK0	0.000	
2	 H03	10.180	9.760	23.440	 H	1	UNK0	0.000	
3	 H04	12.720	8.800	26.710	 H	1	UNK0	0.000	
4	 H10	5.830	7.990	22.060	 H	1	UNK0	0.000	
5	 H07	8.810	7.360	28.760	 H	1	UNK0	0.000	
6	 H08	11.850	7.320	29.980	 H	1	UNK0	0.000	
7	 H14	8.690	3.820	17.530	 H	1	UNK0	0.000	
8	 H09	12.770	8.060	28.660	 H	1	UNK0	0.000	
9	 H02	8.410	8.610	27.180	 H	1	UNK0	0.000	
10	 H11	8.720	5.540	18.530	 H	1	UNK0	0.000	
11	 H17	5.430	5.730	16.700	 H	1	UNK0	0.000	
12	 H18	4.070	5.820	15.710	 H	1	UNK0	0.000	
13	 H06	9.890	6.930	30.030	 H	1	UNK0	0.000	
14	 H16	8.690	1.830	16.180	 H	1	UNK0	0.000	
15	 H01	5.280	10.130	22.600	 H	1	UNK0	0.000	
16	 H12	4.670	4.700	19.780	 H	1	UNK0	0.000	
17	 H15	6.580	0.650	15.660	 H	1	UNK0	0.000	
18	 H13	4.440	1.610	16.350	 H	1	UNK0	0.000	
19	  C1	7.250	9.280	23.450	C.2	1	UNK0	0.000	
20	  N1	7.870	9.550	24.800	N.pl3	1	UNK0	0.000	
21	  N2	6.980	10.420	25.700	N.2	1	UNK0	0.000	
22	  C2	5.830	10.770	24.880	C.2	1	UNK0	0.000	
23	  C3	5.980	10.060	23.420	C.2	1	UNK0	0.000	
24	  C4	9.150	9.170	25.270	C.2	1	UNK0	0.000	
25	  C5	9.310	8.790	26.600	C.2	1	UNK0	0.000	
26	  C6	10.590	8.540	27.140	C.2	1	UNK0	0.000	
27	  C7	10.270	9.420	24.470	C.2	1	UNK0	0.000	
28	  C8	11.700	8.900	26.340	C.2	1	UNK0	0.000	
29	  C9	11.540	9.360	25.040	C.2	1	UNK0	0.000	
30	 C10	10.760	7.870	28.440	C.2	1	UNK0	0.000	
31	  N3	9.770	7.320	29.090	N.pl3	1	UNK0	0.000	
32	  N4	11.900	7.700	29.020	N.pl3	1	UNK0	0.000	
33	 C11	7.780	8.320	22.520	C.2	1	UNK0	0.000	
34	  N5	6.780	7.820	21.780	N.pl3	1	UNK0	0.000	
35	  O1	8.860	7.780	22.670	O.2	1	UNK0	0.000	
36	 C12	6.860	6.830	20.850	C.2	1	UNK0	0.000	
37	  N6	7.950	6.620	20.090	N.2	1	UNK0	0.000	
38	  N7	5.670	6.220	20.710	N.2	1	UNK0	0.000	
39	 C13	6.640	4.930	18.860	C.2	1	UNK0	0.000	
40	 C14	7.820	5.670	19.120	C.2	1	UNK0	0.000	
41	 C15	5.600	5.250	19.760	C.2	1	UNK0	0.000	
42	 C16	5.320	3.290	17.430	C.2	1	UNK0	0.000	
43	 C17	6.540	3.920	17.860	C.2	1	UNK0	0.000	
44	 C18	5.350	2.080	16.710	C.2	1	UNK0	0.000	
45	 C19	7.730	3.400	17.300	C.2	1	UNK0	0.000	
46	 C20	6.560	1.560	16.260	C.2	1	UNK0	0.000	
47	 C21	7.740	2.230	16.530	C.2	1	UNK0	0.000	
48	  S1	3.830	4.290	17.050	S.o2	1	UNK0	0.000	
49	  O2	3.310	3.870	15.780	O.2	1	UNK0	0.000	
50	  O3	3.020	4.400	18.240	O.2	1	UNK0	0.000	
51	  N8	4.420	5.750	16.670	N.3	1	UNK0	0.000	
52	 C22	4.670	11.660	25.310	C.3	1	UNK0	0.000	
53	  F1	3.710	10.940	25.960	 F	1	UNK0	0.000	
54	  F2	4.050	12.230	24.240	 F	1	UNK0	0.000	
55	  F3	5.050	12.670	26.130	 F	1	UNK0	0.000	
@<TRIPOS>BOND
1 19 20 1
2 19 23 2
3 19 33 1
4 20 21 1
5 20 24 1
6 21 22 2
7 22 23 1
8 22 52 1
9 15 23 1
10 24 25 2
11 24 27 1
12 9 25 1
13 25 26 1
14 26 28 2
15 26 30 1
16 2 27 1
17 27 29 2
18 3 28 1
19 28 29 1
20 1 29 1
21 30 31 2
22 30 32 1
23 5 31 1
24 13 31 1
25 6 32 1
26 8 32 1
27 33 34 1
28 33 35 2
29 4 34 1
30 34 36 1
31 36 37 2
32 36 38 1
33 37 40 1
34 38 41 2
35 39 40 2
36 39 41 1
37 39 43 1
38 10 40 1
39 16 41 1
40 42 43 2
41 42 44 1
42 42 48 1
43 43 45 1
44 18 44 1
45 44 46 2
46 7 45 1
47 45 47 2
48 17 46 1
49 46 47 1
50 14 47 1
51 48 49 2
52 48 50 2
53 48 51 1
54 11 51 1
55 12 51 1
56 52 53 1
57 52 54 1
58 52 55 1
@<TRIPOS>SUBSTRUCTURE
1	UNK0	1	GROUP	1 ****	UNK
