# created with PyMOL 2.5.0
@<TRIPOS>MOLECULE
BDB50096105
55 58 1                 
SMALL
USER_CHARGES
@<TRIPOS>ATOM
1	 H05	10.410	9.560	24.970	 H	1	UNK0	0.000	
2	 H03	8.190	9.470	23.980	 H	1	UNK0	0.000	
3	 H04	10.820	8.810	27.270	 H	1	UNK0	0.000	
4	 H10	4.710	6.670	22.040	 H	1	UNK0	0.000	
5	 H07	7.290	8.310	29.720	 H	1	UNK0	0.000	
6	 H08	10.120	6.820	30.360	 H	1	UNK0	0.000	
7	 H14	7.190	6.990	16.000	 H	1	UNK0	0.000	
8	 H09	10.840	6.830	28.760	 H	1	UNK0	0.000	
9	 H02	6.680	7.600	27.540	 H	1	UNK0	0.000	
10	 H11	7.940	6.790	17.990	 H	1	UNK0	0.000	
11	 H17	5.340	0.600	16.260	 H	1	UNK0	0.000	
12	 H18	6.950	1.020	16.630	 H	1	UNK0	0.000	
13	 H06	8.220	7.320	30.800	 H	1	UNK0	0.000	
14	 H16	6.970	6.590	13.610	 H	1	UNK0	0.000	
15	 H01	3.340	8.270	22.870	 H	1	UNK0	0.000	
16	 H12	4.290	4.550	18.550	 H	1	UNK0	0.000	
17	 H15	5.820	4.580	12.760	 H	1	UNK0	0.000	
18	 H13	5.000	2.880	14.310	 H	1	UNK0	0.000	
19	  C1	5.510	8.170	23.690	C.2	1	UNK0	0.000	
20	  N1	5.970	8.340	25.120	N.pl3	1	UNK0	0.000	
21	  N2	4.790	8.430	26.110	N.2	1	UNK0	0.000	
22	  C2	3.600	8.480	25.280	C.2	1	UNK0	0.000	
23	  C3	4.020	8.320	23.730	C.2	1	UNK0	0.000	
24	  C4	7.280	8.460	25.680	C.2	1	UNK0	0.000	
25	  C5	7.500	8.040	27.000	C.2	1	UNK0	0.000	
26	  C6	8.780	8.120	27.600	C.2	1	UNK0	0.000	
27	  C7	8.330	9.040	24.950	C.2	1	UNK0	0.000	
28	  C8	9.810	8.700	26.850	C.2	1	UNK0	0.000	
29	  C9	9.610	9.150	25.550	C.2	1	UNK0	0.000	
30	 C10	8.960	7.580	28.940	C.2	1	UNK0	0.000	
31	  N3	8.040	7.630	29.830	N.pl3	1	UNK0	0.000	
32	  N4	10.040	6.950	29.340	N.pl3	1	UNK0	0.000	
33	 C11	6.340	7.740	22.610	C.2	1	UNK0	0.000	
34	  N5	5.610	6.980	21.760	N.pl3	1	UNK0	0.000	
35	  O1	7.560	7.770	22.610	O.2	1	UNK0	0.000	
36	 C12	5.980	6.470	20.560	C.2	1	UNK0	0.000	
37	  N6	7.030	6.900	19.830	N.2	1	UNK0	0.000	
38	  N7	5.000	5.650	20.140	N.2	1	UNK0	0.000	
39	 C13	6.150	5.550	17.980	C.2	1	UNK0	0.000	
40	 C14	7.090	6.440	18.550	C.2	1	UNK0	0.000	
41	 C15	5.120	5.180	18.860	C.2	1	UNK0	0.000	
42	 C16	5.570	3.980	16.100	C.2	1	UNK0	0.000	
43	 C17	6.180	5.160	16.620	C.2	1	UNK0	0.000	
44	 C18	5.400	3.800	14.710	C.2	1	UNK0	0.000	
45	 C19	6.720	6.060	15.680	C.2	1	UNK0	0.000	
46	 C20	5.900	4.750	13.830	C.2	1	UNK0	0.000	
47	 C21	6.570	5.870	14.310	C.2	1	UNK0	0.000	
48	  S1	5.600	2.440	17.090	S.o2	1	UNK0	0.000	
49	  O2	6.660	2.490	18.060	O.2	1	UNK0	0.000	
50	  O3	4.250	2.070	17.430	O.2	1	UNK0	0.000	
51	  N8	6.100	1.260	16.130	N.3	1	UNK0	0.000	
52	 C22	2.170	8.610	25.800	C.3	1	UNK0	0.000	
53	  F1	1.700	7.440	26.330	 F	1	UNK0	0.000	
54	  F2	1.300	8.940	24.800	 F	1	UNK0	0.000	
55	  F3	2.020	9.580	26.760	 F	1	UNK0	0.000	
@<TRIPOS>BOND
1 19 20 1
2 19 23 2
3 19 33 1
4 20 21 1
5 20 24 1
6 21 22 2
7 22 23 1
8 22 52 1
9 15 23 1
10 24 25 2
11 24 27 1
12 9 25 1
13 25 26 1
14 26 28 2
15 26 30 1
16 2 27 1
17 27 29 2
18 3 28 1
19 28 29 1
20 1 29 1
21 30 31 2
22 30 32 1
23 5 31 1
24 13 31 1
25 6 32 1
26 8 32 1
27 33 34 1
28 33 35 2
29 4 34 1
30 34 36 1
31 36 37 2
32 36 38 1
33 37 40 1
34 38 41 2
35 39 40 2
36 39 41 1
37 39 43 1
38 10 40 1
39 16 41 1
40 42 43 2
41 42 44 1
42 42 48 1
43 43 45 1
44 18 44 1
45 44 46 2
46 7 45 1
47 45 47 2
48 17 46 1
49 46 47 1
50 14 47 1
51 48 49 2
52 48 50 2
53 48 51 1
54 11 51 1
55 12 51 1
56 52 53 1
57 52 54 1
58 52 55 1
@<TRIPOS>SUBSTRUCTURE
1	UNK0	1	GROUP	1 ****	UNK
