# created with PyMOL 2.5.0
@<TRIPOS>MOLECULE
BDB50096105
55 58 1                 
SMALL
USER_CHARGES
@<TRIPOS>ATOM
1	 H05	10.090	9.510	19.580	 H	1	UNK0	0.000	
2	 H03	8.240	7.890	19.410	 H	1	UNK0	0.000	
3	 H04	9.830	11.560	20.880	 H	1	UNK0	0.000	
4	 H10	8.830	5.360	19.980	 H	1	UNK0	0.000	
5	 H07	6.220	11.400	23.280	 H	1	UNK0	0.000	
6	 H08	9.060	13.530	21.630	 H	1	UNK0	0.000	
7	 H14	8.190	0.960	18.330	 H	1	UNK0	0.000	
8	 H09	8.380	13.820	23.170	 H	1	UNK0	0.000	
9	 H02	5.640	10.640	21.410	 H	1	UNK0	0.000	
10	 H11	6.510	1.800	18.450	 H	1	UNK0	0.000	
11	 H17	4.020	-0.750	19.630	 H	1	UNK0	0.000	
12	 H18	5.070	-0.610	18.310	 H	1	UNK0	0.000	
13	 H06	6.140	13.130	23.390	 H	1	UNK0	0.000	
14	 H16	10.680	0.440	18.400	 H	1	UNK0	0.000	
15	 H01	5.490	5.160	22.920	 H	1	UNK0	0.000	
16	 H12	7.330	1.760	22.730	 H	1	UNK0	0.000	
17	 H15	10.180	-1.980	17.910	 H	1	UNK0	0.000	
18	 H13	7.840	-2.680	18.040	 H	1	UNK0	0.000	
19	  C1	6.640	6.770	21.740	C.2	1	UNK0	0.000	
20	  N1	6.140	8.110	21.260	N.pl3	1	UNK0	0.000	
21	  N2	4.680	8.380	21.670	N.2	1	UNK0	0.000	
22	  C2	4.260	7.200	22.400	C.2	1	UNK0	0.000	
23	  C3	5.480	6.130	22.450	C.2	1	UNK0	0.000	
24	  C4	6.840	9.120	20.530	C.2	1	UNK0	0.000	
25	  C5	6.620	10.410	21.010	C.2	1	UNK0	0.000	
26	  C6	7.700	11.270	21.260	C.2	1	UNK0	0.000	
27	  C7	8.070	8.840	19.920	C.2	1	UNK0	0.000	
28	  C8	8.950	10.930	20.720	C.2	1	UNK0	0.000	
29	  C9	9.120	9.750	20.000	C.2	1	UNK0	0.000	
30	 C10	7.530	12.380	22.210	C.2	1	UNK0	0.000	
31	  N3	6.690	12.300	23.190	N.pl3	1	UNK0	0.000	
32	  N4	8.240	13.460	22.240	N.pl3	1	UNK0	0.000	
33	 C11	7.970	6.300	21.560	C.2	1	UNK0	0.000	
34	  N5	8.000	5.400	20.550	N.pl3	1	UNK0	0.000	
35	  O1	8.940	6.990	21.790	O.2	1	UNK0	0.000	
36	 C12	7.450	4.160	20.680	C.2	1	UNK0	0.000	
37	  N6	7.130	3.530	19.550	N.2	1	UNK0	0.000	
38	  N7	7.510	3.510	21.850	N.2	1	UNK0	0.000	
39	 C13	7.040	1.380	20.580	C.2	1	UNK0	0.000	
40	 C14	6.550	2.260	19.570	C.2	1	UNK0	0.000	
41	 C15	7.440	2.140	21.750	C.2	1	UNK0	0.000	
42	 C16	7.270	-0.950	19.390	C.2	1	UNK0	0.000	
43	 C17	7.760	0.270	20.020	C.2	1	UNK0	0.000	
44	 C18	8.120	-1.740	18.530	C.2	1	UNK0	0.000	
45	 C19	8.790	0.760	19.230	C.2	1	UNK0	0.000	
46	 C20	9.440	-1.330	18.360	C.2	1	UNK0	0.000	
47	 C21	9.790	-0.040	18.740	C.2	1	UNK0	0.000	
48	  S1	5.790	-1.740	20.060	S.o2	1	UNK0	0.000	
49	  O2	5.900	-3.160	19.910	O.2	1	UNK0	0.000	
50	  O3	5.380	-1.070	21.260	O.2	1	UNK0	0.000	
51	  N8	4.660	-1.230	18.990	N.3	1	UNK0	0.000	
52	 C22	2.880	7.020	23.020	C.3	1	UNK0	0.000	
53	  F1	2.010	6.420	22.160	 F	1	UNK0	0.000	
54	  F2	2.290	8.180	23.430	 F	1	UNK0	0.000	
55	  F3	2.910	6.230	24.130	 F	1	UNK0	0.000	
@<TRIPOS>BOND
1 19 20 1
2 19 23 2
3 19 33 1
4 20 21 1
5 20 24 1
6 21 22 2
7 22 23 1
8 22 52 1
9 15 23 1
10 24 25 2
11 24 27 1
12 9 25 1
13 25 26 1
14 26 28 2
15 26 30 1
16 2 27 1
17 27 29 2
18 3 28 1
19 28 29 1
20 1 29 1
21 30 31 2
22 30 32 1
23 5 31 1
24 13 31 1
25 6 32 1
26 8 32 1
27 33 34 1
28 33 35 2
29 4 34 1
30 34 36 1
31 36 37 2
32 36 38 1
33 37 40 1
34 38 41 2
35 39 40 2
36 39 41 1
37 39 43 1
38 10 40 1
39 16 41 1
40 42 43 2
41 42 44 1
42 42 48 1
43 43 45 1
44 18 44 1
45 44 46 2
46 7 45 1
47 45 47 2
48 17 46 1
49 46 47 1
50 14 47 1
51 48 49 2
52 48 50 2
53 48 51 1
54 11 51 1
55 12 51 1
56 52 53 1
57 52 54 1
58 52 55 1
@<TRIPOS>SUBSTRUCTURE
1	UNK0	1	GROUP	1 ****	UNK
