# created with PyMOL 2.5.0
@<TRIPOS>MOLECULE
BDB50096105
55 58 1                 
SMALL
USER_CHARGES
@<TRIPOS>ATOM
1	 H05	9.950	9.290	24.480	 H	1	UNK0	0.000	
2	 H03	9.040	7.760	26.340	 H	1	UNK0	0.000	
3	 H04	11.670	10.820	25.180	 H	1	UNK0	0.000	
4	 H10	7.180	7.480	23.790	 H	1	UNK0	0.000	
5	 H07	12.190	8.420	28.170	 H	1	UNK0	0.000	
6	 H08	13.250	12.220	27.920	 H	1	UNK0	0.000	
7	 H14	8.540	4.360	19.290	 H	1	UNK0	0.000	
8	 H09	14.150	11.000	28.840	 H	1	UNK0	0.000	
9	 H02	10.550	10.890	29.140	 H	1	UNK0	0.000	
10	 H11	8.190	5.830	20.580	 H	1	UNK0	0.000	
11	 H17	2.610	1.620	18.620	 H	1	UNK0	0.000	
12	 H18	2.990	3.010	17.710	 H	1	UNK0	0.000	
13	 H06	13.080	9.130	29.420	 H	1	UNK0	0.000	
14	 H16	9.360	2.280	18.370	 H	1	UNK0	0.000	
15	 H01	4.490	8.910	25.990	 H	1	UNK0	0.000	
16	 H12	4.700	3.800	22.070	 H	1	UNK0	0.000	
17	 H15	7.830	0.370	17.990	 H	1	UNK0	0.000	
18	 H13	5.460	0.630	18.460	 H	1	UNK0	0.000	
19	  C1	6.770	8.900	26.170	C.2	1	UNK0	0.000	
20	  N1	7.660	9.600	27.270	N.pl3	1	UNK0	0.000	
21	  N2	6.800	10.410	28.230	N.2	1	UNK0	0.000	
22	  C2	5.420	10.170	27.830	C.2	1	UNK0	0.000	
23	  C3	5.380	9.210	26.540	C.2	1	UNK0	0.000	
24	  C4	9.100	9.450	27.600	C.2	1	UNK0	0.000	
25	  C5	10.130	10.430	28.130	C.2	1	UNK0	0.000	
26	  C6	11.250	10.600	27.310	C.2	1	UNK0	0.000	
27	  C7	9.540	8.700	26.540	C.2	1	UNK0	0.000	
28	  C8	11.010	10.450	25.940	C.2	1	UNK0	0.000	
29	  C9	10.080	9.500	25.540	C.2	1	UNK0	0.000	
30	 C10	12.560	10.340	27.910	C.2	1	UNK0	0.000	
31	  N3	12.830	9.180	28.420	N.pl3	1	UNK0	0.000	
32	  N4	13.330	11.280	28.320	N.pl3	1	UNK0	0.000	
33	 C11	7.100	8.210	24.900	C.2	1	UNK0	0.000	
34	  N5	6.340	7.240	24.340	N.pl3	1	UNK0	0.000	
35	  O1	7.990	8.510	24.150	O.2	1	UNK0	0.000	
36	 C12	6.340	6.380	23.230	C.2	1	UNK0	0.000	
37	  N6	7.340	6.520	22.330	N.2	1	UNK0	0.000	
38	  N7	5.360	5.460	23.100	N.2	1	UNK0	0.000	
39	 C13	6.440	4.590	21.010	C.2	1	UNK0	0.000	
40	 C14	7.360	5.640	21.260	C.2	1	UNK0	0.000	
41	 C15	5.450	4.580	22.040	C.2	1	UNK0	0.000	
42	 C16	5.710	2.540	19.580	C.2	1	UNK0	0.000	
43	 C17	6.620	3.600	19.940	C.2	1	UNK0	0.000	
44	 C18	6.140	1.400	18.840	C.2	1	UNK0	0.000	
45	 C19	7.850	3.540	19.230	C.2	1	UNK0	0.000	
46	 C20	7.470	1.280	18.470	C.2	1	UNK0	0.000	
47	 C21	8.320	2.360	18.650	C.2	1	UNK0	0.000	
48	  S1	3.930	2.920	19.530	S.o2	1	UNK0	0.000	
49	  O2	3.280	2.250	20.630	O.2	1	UNK0	0.000	
50	  O3	3.740	4.320	19.240	O.2	1	UNK0	0.000	
51	  N8	3.340	2.200	18.220	N.3	1	UNK0	0.000	
52	 C22	4.200	10.770	28.490	C.3	1	UNK0	0.000	
53	  F1	3.110	10.730	27.680	 F	1	UNK0	0.000	
54	  F2	4.390	12.080	28.810	 F	1	UNK0	0.000	
55	  F3	3.890	10.120	29.640	 F	1	UNK0	0.000	
@<TRIPOS>BOND
1 19 20 1
2 19 23 2
3 19 33 1
4 20 21 1
5 20 24 1
6 21 22 2
7 22 23 1
8 22 52 1
9 15 23 1
10 24 25 2
11 24 27 1
12 9 25 1
13 25 26 1
14 26 28 2
15 26 30 1
16 2 27 1
17 27 29 2
18 3 28 1
19 28 29 1
20 1 29 1
21 30 31 2
22 30 32 1
23 5 31 1
24 13 31 1
25 6 32 1
26 8 32 1
27 33 34 1
28 33 35 2
29 4 34 1
30 34 36 1
31 36 37 2
32 36 38 1
33 37 40 1
34 38 41 2
35 39 40 2
36 39 41 1
37 39 43 1
38 10 40 1
39 16 41 1
40 42 43 2
41 42 44 1
42 42 48 1
43 43 45 1
44 18 44 1
45 44 46 2
46 7 45 1
47 45 47 2
48 17 46 1
49 46 47 1
50 14 47 1
51 48 49 2
52 48 50 2
53 48 51 1
54 11 51 1
55 12 51 1
56 52 53 1
57 52 54 1
58 52 55 1
@<TRIPOS>SUBSTRUCTURE
1	UNK0	1	GROUP	1 ****	UNK
