# created with PyMOL 2.5.0
@<TRIPOS>MOLECULE
BDB50096105
55 58 1                 
SMALL
USER_CHARGES
@<TRIPOS>ATOM
1	 H05	10.900	9.540	23.150	 H	1	UNK0	0.000	
2	 H03	8.460	9.350	22.760	 H	1	UNK0	0.000	
3	 H04	11.940	8.560	25.120	 H	1	UNK0	0.000	
4	 H10	5.020	5.040	22.810	 H	1	UNK0	0.000	
5	 H07	9.040	6.890	28.210	 H	1	UNK0	0.000	
6	 H08	12.600	6.830	26.450	 H	1	UNK0	0.000	
7	 H14	9.770	1.690	19.540	 H	1	UNK0	0.000	
8	 H09	12.260	6.400	28.140	 H	1	UNK0	0.000	
9	 H02	8.060	7.120	26.390	 H	1	UNK0	0.000	
10	 H11	8.750	3.630	19.450	 H	1	UNK0	0.000	
11	 H17	5.490	-0.280	16.110	 H	1	UNK0	0.000	
12	 H18	4.100	-0.750	17.010	 H	1	UNK0	0.000	
13	 H06	10.420	6.330	29.020	 H	1	UNK0	0.000	
14	 H16	10.760	0.100	18.010	 H	1	UNK0	0.000	
15	 H01	3.620	7.050	23.390	 H	1	UNK0	0.000	
16	 H12	5.540	1.180	20.920	 H	1	UNK0	0.000	
17	 H15	9.330	-1.350	16.600	 H	1	UNK0	0.000	
18	 H13	6.920	-1.190	16.730	 H	1	UNK0	0.000	
19	  C1	5.920	7.250	23.590	C.2	1	UNK0	0.000	
20	  N1	6.710	8.170	24.420	N.pl3	1	UNK0	0.000	
21	  N2	5.850	9.100	25.210	N.2	1	UNK0	0.000	
22	  C2	4.470	8.750	24.910	C.2	1	UNK0	0.000	
23	  C3	4.470	7.530	23.850	C.2	1	UNK0	0.000	
24	  C4	8.110	8.240	24.580	C.2	1	UNK0	0.000	
25	  C5	8.700	7.660	25.710	C.2	1	UNK0	0.000	
26	  C6	10.100	7.720	25.940	C.2	1	UNK0	0.000	
27	  C7	8.900	8.930	23.660	C.2	1	UNK0	0.000	
28	  C8	10.860	8.450	25.010	C.2	1	UNK0	0.000	
29	  C9	10.270	9.030	23.880	C.2	1	UNK0	0.000	
30	 C10	10.720	7.060	27.120	C.2	1	UNK0	0.000	
31	  N3	10.020	6.700	28.140	N.pl3	1	UNK0	0.000	
32	  N4	11.980	6.780	27.240	N.pl3	1	UNK0	0.000	
33	 C11	6.570	6.390	22.700	C.2	1	UNK0	0.000	
34	  N5	5.850	5.290	22.330	N.pl3	1	UNK0	0.000	
35	  O1	7.720	6.620	22.400	O.2	1	UNK0	0.000	
36	 C12	6.360	4.290	21.550	C.2	1	UNK0	0.000	
37	  N6	7.460	4.470	20.790	N.2	1	UNK0	0.000	
38	  N7	5.640	3.140	21.620	N.2	1	UNK0	0.000	
39	 C13	7.230	2.190	20.000	C.2	1	UNK0	0.000	
40	 C14	7.880	3.430	20.060	C.2	1	UNK0	0.000	
41	 C15	6.090	2.110	20.830	C.2	1	UNK0	0.000	
42	 C16	6.880	0.360	18.280	C.2	1	UNK0	0.000	
43	 C17	7.690	1.210	19.090	C.2	1	UNK0	0.000	
44	 C18	7.490	-0.560	17.400	C.2	1	UNK0	0.000	
45	 C19	9.090	1.080	18.950	C.2	1	UNK0	0.000	
46	 C20	8.870	-0.660	17.300	C.2	1	UNK0	0.000	
47	 C21	9.680	0.160	18.080	C.2	1	UNK0	0.000	
48	  S1	5.130	0.820	17.980	S.o2	1	UNK0	0.000	
49	  O2	4.330	0.220	19.020	O.2	1	UNK0	0.000	
50	  O3	5.080	2.220	17.660	O.2	1	UNK0	0.000	
51	  N8	4.680	0.010	16.640	N.3	1	UNK0	0.000	
52	 C22	3.250	9.420	25.500	C.3	1	UNK0	0.000	
53	  F1	2.490	8.540	26.200	 F	1	UNK0	0.000	
54	  F2	2.440	9.930	24.530	 F	1	UNK0	0.000	
55	  F3	3.550	10.450	26.340	 F	1	UNK0	0.000	
@<TRIPOS>BOND
1 19 20 1
2 19 23 2
3 19 33 1
4 20 21 1
5 20 24 1
6 21 22 2
7 22 23 1
8 22 52 1
9 15 23 1
10 24 25 2
11 24 27 1
12 9 25 1
13 25 26 1
14 26 28 2
15 26 30 1
16 2 27 1
17 27 29 2
18 3 28 1
19 28 29 1
20 1 29 1
21 30 31 2
22 30 32 1
23 5 31 1
24 13 31 1
25 6 32 1
26 8 32 1
27 33 34 1
28 33 35 2
29 4 34 1
30 34 36 1
31 36 37 2
32 36 38 1
33 37 40 1
34 38 41 2
35 39 40 2
36 39 41 1
37 39 43 1
38 10 40 1
39 16 41 1
40 42 43 2
41 42 44 1
42 42 48 1
43 43 45 1
44 18 44 1
45 44 46 2
46 7 45 1
47 45 47 2
48 17 46 1
49 46 47 1
50 14 47 1
51 48 49 2
52 48 50 2
53 48 51 1
54 11 51 1
55 12 51 1
56 52 53 1
57 52 54 1
58 52 55 1
@<TRIPOS>SUBSTRUCTURE
1	UNK0	1	GROUP	1 ****	UNK
