# created with PyMOL 2.5.0
@<TRIPOS>MOLECULE
BDB50096105
55 58 1                 
SMALL
USER_CHARGES
@<TRIPOS>ATOM
1	 H05	10.020	8.890	23.340	 H	1	UNK0	0.000	
2	 H03	7.720	9.140	22.720	 H	1	UNK0	0.000	
3	 H04	10.670	8.040	25.550	 H	1	UNK0	0.000	
4	 H10	4.320	8.230	21.220	 H	1	UNK0	0.000	
5	 H07	7.340	6.240	28.140	 H	1	UNK0	0.000	
6	 H08	10.710	8.350	27.860	 H	1	UNK0	0.000	
7	 H14	9.510	8.210	17.310	 H	1	UNK0	0.000	
8	 H09	10.200	7.480	29.230	 H	1	UNK0	0.000	
9	 H02	6.510	7.470	26.520	 H	1	UNK0	0.000	
10	 H11	8.080	9.480	17.970	 H	1	UNK0	0.000	
11	 H17	6.070	5.210	13.200	 H	1	UNK0	0.000	
12	 H18	5.510	3.930	14.160	 H	1	UNK0	0.000	
13	 H06	8.480	6.620	29.420	 H	1	UNK0	0.000	
14	 H16	11.200	6.780	16.390	 H	1	UNK0	0.000	
15	 H01	2.670	10.140	22.980	 H	1	UNK0	0.000	
16	 H12	5.420	6.070	18.000	 H	1	UNK0	0.000	
17	 H15	10.660	4.510	15.600	 H	1	UNK0	0.000	
18	 H13	8.310	3.840	15.360	 H	1	UNK0	0.000	
19	  C1	4.850	9.440	23.200	C.2	1	UNK0	0.000	
20	  N1	5.520	8.790	24.400	N.pl3	1	UNK0	0.000	
21	  N2	4.520	8.550	25.550	N.2	1	UNK0	0.000	
22	  C2	3.260	9.110	25.090	C.2	1	UNK0	0.000	
23	  C3	3.430	9.670	23.590	C.2	1	UNK0	0.000	
24	  C4	6.890	8.410	24.630	C.2	1	UNK0	0.000	
25	  C5	7.290	7.820	25.840	C.2	1	UNK0	0.000	
26	  C6	8.640	7.700	26.260	C.2	1	UNK0	0.000	
27	  C7	7.910	8.770	23.720	C.2	1	UNK0	0.000	
28	  C8	9.610	8.120	25.310	C.2	1	UNK0	0.000	
29	  C9	9.250	8.610	24.070	C.2	1	UNK0	0.000	
30	 C10	9.020	7.250	27.610	C.2	1	UNK0	0.000	
31	  N3	8.280	6.570	28.410	N.pl3	1	UNK0	0.000	
32	  N4	10.120	7.600	28.210	N.pl3	1	UNK0	0.000	
33	 C11	5.440	9.770	21.980	C.2	1	UNK0	0.000	
34	  N5	4.940	8.980	20.990	N.pl3	1	UNK0	0.000	
35	  O1	6.170	10.740	21.850	O.2	1	UNK0	0.000	
36	 C12	5.470	8.780	19.770	C.2	1	UNK0	0.000	
37	  N6	6.500	9.500	19.270	N.2	1	UNK0	0.000	
38	  N7	5.010	7.620	19.260	N.2	1	UNK0	0.000	
39	 C13	6.930	7.630	17.740	C.2	1	UNK0	0.000	
40	 C14	7.210	8.910	18.280	C.2	1	UNK0	0.000	
41	 C15	5.750	7.070	18.270	C.2	1	UNK0	0.000	
42	 C16	7.500	5.670	16.230	C.2	1	UNK0	0.000	
43	 C17	7.820	6.900	16.880	C.2	1	UNK0	0.000	
44	 C18	8.530	4.780	15.840	C.2	1	UNK0	0.000	
45	 C19	9.170	7.310	16.840	C.2	1	UNK0	0.000	
46	 C20	9.850	5.190	15.920	C.2	1	UNK0	0.000	
47	 C21	10.170	6.460	16.340	C.2	1	UNK0	0.000	
48	  S1	5.970	5.630	15.230	S.o2	1	UNK0	0.000	
49	  O2	4.930	4.970	15.960	O.2	1	UNK0	0.000	
50	  O3	5.810	6.890	14.550	O.2	1	UNK0	0.000	
51	  N8	6.250	4.620	14.000	N.3	1	UNK0	0.000	
52	 C22	1.980	9.210	25.950	C.3	1	UNK0	0.000	
53	  F1	1.490	8.000	26.330	 F	1	UNK0	0.000	
54	  F2	0.970	9.820	25.250	 F	1	UNK0	0.000	
55	  F3	2.160	9.950	27.070	 F	1	UNK0	0.000	
@<TRIPOS>BOND
1 19 20 1
2 19 23 2
3 19 33 1
4 20 21 1
5 20 24 1
6 21 22 2
7 22 23 1
8 22 52 1
9 15 23 1
10 24 25 2
11 24 27 1
12 9 25 1
13 25 26 1
14 26 28 2
15 26 30 1
16 2 27 1
17 27 29 2
18 3 28 1
19 28 29 1
20 1 29 1
21 30 31 2
22 30 32 1
23 5 31 1
24 13 31 1
25 6 32 1
26 8 32 1
27 33 34 1
28 33 35 2
29 4 34 1
30 34 36 1
31 36 37 2
32 36 38 1
33 37 40 1
34 38 41 2
35 39 40 2
36 39 41 1
37 39 43 1
38 10 40 1
39 16 41 1
40 42 43 2
41 42 44 1
42 42 48 1
43 43 45 1
44 18 44 1
45 44 46 2
46 7 45 1
47 45 47 2
48 17 46 1
49 46 47 1
50 14 47 1
51 48 49 2
52 48 50 2
53 48 51 1
54 11 51 1
55 12 51 1
56 52 53 1
57 52 54 1
58 52 55 1
@<TRIPOS>SUBSTRUCTURE
1	UNK0	1	GROUP	1 ****	UNK
