# created with PyMOL 2.5.0
@<TRIPOS>MOLECULE
BDB50096105
55 58 1                 
SMALL
USER_CHARGES
@<TRIPOS>ATOM
1	 H05	12.240	9.580	24.720	 H	1	UNK0	0.000	
2	 H03	10.090	10.180	23.760	 H	1	UNK0	0.000	
3	 H04	12.390	8.410	26.860	 H	1	UNK0	0.000	
4	 H10	6.300	9.050	21.190	 H	1	UNK0	0.000	
5	 H07	8.440	7.020	28.660	 H	1	UNK0	0.000	
6	 H08	12.270	8.050	28.980	 H	1	UNK0	0.000	
7	 H14	9.640	3.730	19.580	 H	1	UNK0	0.000	
8	 H09	11.260	7.320	30.230	 H	1	UNK0	0.000	
9	 H02	8.080	8.450	27.160	 H	1	UNK0	0.000	
10	 H11	9.720	5.720	19.300	 H	1	UNK0	0.000	
11	 H17	6.020	3.580	15.100	 H	1	UNK0	0.000	
12	 H18	6.490	2.300	16.010	 H	1	UNK0	0.000	
13	 H06	9.380	6.790	30.090	 H	1	UNK0	0.000	
14	 H16	9.640	1.320	19.580	 H	1	UNK0	0.000	
15	 H01	5.180	10.190	22.440	 H	1	UNK0	0.000	
16	 H12	5.400	5.620	19.210	 H	1	UNK0	0.000	
17	 H15	7.630	0.050	18.900	 H	1	UNK0	0.000	
18	 H13	5.660	1.220	18.040	 H	1	UNK0	0.000	
19	  C1	7.240	9.600	23.320	C.2	1	UNK0	0.000	
20	  N1	7.630	9.500	24.780	N.pl3	1	UNK0	0.000	
21	  N2	6.440	9.760	25.720	N.2	1	UNK0	0.000	
22	  C2	5.320	10.110	24.850	C.2	1	UNK0	0.000	
23	  C3	5.800	10.040	23.300	C.2	1	UNK0	0.000	
24	  C4	8.910	9.260	25.350	C.2	1	UNK0	0.000	
25	  C5	9.000	8.650	26.630	C.2	1	UNK0	0.000	
26	  C6	10.250	8.300	27.200	C.2	1	UNK0	0.000	
27	  C7	10.100	9.610	24.700	C.2	1	UNK0	0.000	
28	  C8	11.410	8.650	26.480	C.2	1	UNK0	0.000	
29	  C9	11.330	9.310	25.250	C.2	1	UNK0	0.000	
30	 C10	10.350	7.620	28.530	C.2	1	UNK0	0.000	
31	  N3	9.360	7.000	29.070	N.pl3	1	UNK0	0.000	
32	  N4	11.420	7.580	29.240	N.pl3	1	UNK0	0.000	
33	 C11	8.020	9.090	22.240	C.2	1	UNK0	0.000	
34	  N5	7.290	8.890	21.130	N.pl3	1	UNK0	0.000	
35	  O1	9.110	8.590	22.450	O.2	1	UNK0	0.000	
36	 C12	7.490	7.870	20.250	C.2	1	UNK0	0.000	
37	  N6	8.710	7.360	19.980	N.2	1	UNK0	0.000	
38	  N7	6.310	7.320	19.920	N.2	1	UNK0	0.000	
39	 C13	7.570	5.360	19.130	C.2	1	UNK0	0.000	
40	 C14	8.720	6.130	19.420	C.2	1	UNK0	0.000	
41	 C15	6.380	6.080	19.360	C.2	1	UNK0	0.000	
42	 C16	6.510	3.220	18.310	C.2	1	UNK0	0.000	
43	 C17	7.610	3.980	18.800	C.2	1	UNK0	0.000	
44	 C18	6.500	1.810	18.410	C.2	1	UNK0	0.000	
45	 C19	8.750	3.240	19.180	C.2	1	UNK0	0.000	
46	 C20	7.630	1.130	18.850	C.2	1	UNK0	0.000	
47	 C21	8.760	1.840	19.220	C.2	1	UNK0	0.000	
48	  S1	5.450	3.890	17.010	S.o2	1	UNK0	0.000	
49	  O2	4.080	3.790	17.440	O.2	1	UNK0	0.000	
50	  O3	6.020	5.110	16.490	O.2	1	UNK0	0.000	
51	  N8	5.690	2.880	15.770	N.3	1	UNK0	0.000	
52	 C22	3.920	10.460	25.330	C.3	1	UNK0	0.000	
53	  F1	3.330	9.480	26.060	 F	1	UNK0	0.000	
54	  F2	3.090	10.680	24.260	 F	1	UNK0	0.000	
55	  F3	3.890	11.610	26.060	 F	1	UNK0	0.000	
@<TRIPOS>BOND
1 19 20 1
2 19 23 2
3 19 33 1
4 20 21 1
5 20 24 1
6 21 22 2
7 22 23 1
8 22 52 1
9 15 23 1
10 24 25 2
11 24 27 1
12 9 25 1
13 25 26 1
14 26 28 2
15 26 30 1
16 2 27 1
17 27 29 2
18 3 28 1
19 28 29 1
20 1 29 1
21 30 31 2
22 30 32 1
23 5 31 1
24 13 31 1
25 6 32 1
26 8 32 1
27 33 34 1
28 33 35 2
29 4 34 1
30 34 36 1
31 36 37 2
32 36 38 1
33 37 40 1
34 38 41 2
35 39 40 2
36 39 41 1
37 39 43 1
38 10 40 1
39 16 41 1
40 42 43 2
41 42 44 1
42 42 48 1
43 43 45 1
44 18 44 1
45 44 46 2
46 7 45 1
47 45 47 2
48 17 46 1
49 46 47 1
50 14 47 1
51 48 49 2
52 48 50 2
53 48 51 1
54 11 51 1
55 12 51 1
56 52 53 1
57 52 54 1
58 52 55 1
@<TRIPOS>SUBSTRUCTURE
1	UNK0	1	GROUP	1 ****	UNK
