# created with PyMOL 2.5.0
@<TRIPOS>MOLECULE
BDB50096105
55 58 1                 
SMALL
USER_CHARGES
@<TRIPOS>ATOM
1	 H05	12.790	9.100	23.670	 H	1	UNK0	0.000	
2	 H03	10.600	9.390	22.620	 H	1	UNK0	0.000	
3	 H04	13.000	8.300	25.960	 H	1	UNK0	0.000	
4	 H10	8.990	7.010	22.620	 H	1	UNK0	0.000	
5	 H07	9.200	6.720	27.950	 H	1	UNK0	0.000	
6	 H08	12.620	8.610	28.170	 H	1	UNK0	0.000	
7	 H14	9.140	1.280	20.530	 H	1	UNK0	0.000	
8	 H09	12.010	7.620	29.450	 H	1	UNK0	0.000	
9	 H02	8.700	8.140	26.290	 H	1	UNK0	0.000	
10	 H11	7.940	4.960	18.020	 H	1	UNK0	0.000	
11	 H17	4.620	1.540	17.710	 H	1	UNK0	0.000	
12	 H18	3.720	2.640	18.600	 H	1	UNK0	0.000	
13	 H06	10.210	6.830	29.370	 H	1	UNK0	0.000	
14	 H16	8.680	-0.830	19.430	 H	1	UNK0	0.000	
15	 H01	5.810	9.920	21.520	 H	1	UNK0	0.000	
16	 H12	9.080	3.000	21.660	 H	1	UNK0	0.000	
17	 H15	7.330	-0.930	17.390	 H	1	UNK0	0.000	
18	 H13	6.240	1.090	16.510	 H	1	UNK0	0.000	
19	  C1	7.790	9.120	22.410	C.2	1	UNK0	0.000	
20	  N1	8.210	9.080	23.860	N.pl3	1	UNK0	0.000	
21	  N2	7.110	9.560	24.800	N.2	1	UNK0	0.000	
22	  C2	6.010	10.000	23.950	C.2	1	UNK0	0.000	
23	  C3	6.430	9.740	22.390	C.2	1	UNK0	0.000	
24	  C4	9.490	8.760	24.390	C.2	1	UNK0	0.000	
25	  C5	9.600	8.330	25.730	C.2	1	UNK0	0.000	
26	  C6	10.870	8.130	26.330	C.2	1	UNK0	0.000	
27	  C7	10.650	9.020	23.640	C.2	1	UNK0	0.000	
28	  C8	12.000	8.450	25.560	C.2	1	UNK0	0.000	
29	  C9	11.900	8.890	24.230	C.2	1	UNK0	0.000	
30	 C10	11.020	7.600	27.720	C.2	1	UNK0	0.000	
31	  N3	10.110	6.940	28.340	N.pl3	1	UNK0	0.000	
32	  N4	12.070	7.800	28.430	N.pl3	1	UNK0	0.000	
33	 C11	8.440	8.490	21.290	C.2	1	UNK0	0.000	
34	  N5	8.940	7.280	21.660	N.pl3	1	UNK0	0.000	
35	  O1	8.320	8.870	20.140	O.2	1	UNK0	0.000	
36	 C12	8.990	6.170	20.850	C.2	1	UNK0	0.000	
37	  N6	8.570	6.160	19.570	N.2	1	UNK0	0.000	
38	  N7	9.260	5.070	21.600	N.2	1	UNK0	0.000	
39	 C13	8.360	3.720	19.740	C.2	1	UNK0	0.000	
40	 C14	8.270	4.940	19.040	C.2	1	UNK0	0.000	
41	 C15	8.930	3.870	21.020	C.2	1	UNK0	0.000	
42	 C16	7.010	2.390	18.090	C.2	1	UNK0	0.000	
43	 C17	7.910	2.500	19.200	C.2	1	UNK0	0.000	
44	 C18	6.870	1.170	17.400	C.2	1	UNK0	0.000	
45	 C19	8.440	1.290	19.700	C.2	1	UNK0	0.000	
46	 C20	7.440	0.020	17.900	C.2	1	UNK0	0.000	
47	 C21	8.200	0.070	19.070	C.2	1	UNK0	0.000	
48	  S1	5.550	3.480	18.070	S.o2	1	UNK0	0.000	
49	  O2	5.260	3.890	19.420	O.2	1	UNK0	0.000	
50	  O3	5.680	4.430	16.990	O.2	1	UNK0	0.000	
51	  N8	4.270	2.500	17.760	N.3	1	UNK0	0.000	
52	 C22	4.710	10.540	24.470	C.3	1	UNK0	0.000	
53	  F1	4.120	9.710	25.370	 F	1	UNK0	0.000	
54	  F2	3.780	10.720	23.480	 F	1	UNK0	0.000	
55	  F3	4.860	11.750	25.090	 F	1	UNK0	0.000	
@<TRIPOS>BOND
1 19 20 1
2 19 23 2
3 19 33 1
4 20 21 1
5 20 24 1
6 21 22 2
7 22 23 1
8 22 52 1
9 15 23 1
10 24 25 2
11 24 27 1
12 9 25 1
13 25 26 1
14 26 28 2
15 26 30 1
16 2 27 1
17 27 29 2
18 3 28 1
19 28 29 1
20 1 29 1
21 30 31 2
22 30 32 1
23 5 31 1
24 13 31 1
25 6 32 1
26 8 32 1
27 33 34 1
28 33 35 2
29 4 34 1
30 34 36 1
31 36 37 2
32 36 38 1
33 37 40 1
34 38 41 2
35 39 40 2
36 39 41 1
37 39 43 1
38 10 40 1
39 16 41 1
40 42 43 2
41 42 44 1
42 42 48 1
43 43 45 1
44 18 44 1
45 44 46 2
46 7 45 1
47 45 47 2
48 17 46 1
49 46 47 1
50 14 47 1
51 48 49 2
52 48 50 2
53 48 51 1
54 11 51 1
55 12 51 1
56 52 53 1
57 52 54 1
58 52 55 1
@<TRIPOS>SUBSTRUCTURE
1	UNK0	1	GROUP	1 ****	UNK
