# created with PyMOL 2.5.0
@<TRIPOS>MOLECULE
BDB50096105
55 58 1                 
SMALL
USER_CHARGES
@<TRIPOS>ATOM
1	 H05	12.390	10.110	24.370	 H	1	UNK0	0.000	
2	 H03	10.350	9.480	23.120	 H	1	UNK0	0.000	
3	 H04	12.610	9.560	26.730	 H	1	UNK0	0.000	
4	 H10	7.730	5.550	22.840	 H	1	UNK0	0.000	
5	 H07	9.030	7.250	28.600	 H	1	UNK0	0.000	
6	 H08	12.860	8.370	28.460	 H	1	UNK0	0.000	
7	 H14	10.510	0.490	18.840	 H	1	UNK0	0.000	
8	 H09	12.030	7.700	29.850	 H	1	UNK0	0.000	
9	 H02	8.540	8.050	26.730	 H	1	UNK0	0.000	
10	 H11	10.540	3.880	18.840	 H	1	UNK0	0.000	
11	 H17	5.780	4.340	17.090	 H	1	UNK0	0.000	
12	 H18	4.520	3.570	17.970	 H	1	UNK0	0.000	
13	 H06	10.160	7.200	29.940	 H	1	UNK0	0.000	
14	 H16	9.350	-0.950	18.650	 H	1	UNK0	0.000	
15	 H01	5.840	7.580	21.800	 H	1	UNK0	0.000	
16	 H12	7.920	1.720	21.460	 H	1	UNK0	0.000	
17	 H15	7.070	-1.120	17.400	 H	1	UNK0	0.000	
18	 H13	5.810	0.650	17.810	 H	1	UNK0	0.000	
19	  C1	7.860	7.890	22.860	C.2	1	UNK0	0.000	
20	  N1	8.100	8.550	24.200	N.pl3	1	UNK0	0.000	
21	  N2	6.810	9.010	24.890	N.2	1	UNK0	0.000	
22	  C2	5.740	8.700	23.950	C.2	1	UNK0	0.000	
23	  C3	6.370	7.970	22.630	C.2	1	UNK0	0.000	
24	  C4	9.310	8.770	24.870	C.2	1	UNK0	0.000	
25	  C5	9.410	8.510	26.250	C.2	1	UNK0	0.000	
26	  C6	10.630	8.660	26.930	C.2	1	UNK0	0.000	
27	  C7	10.410	9.300	24.180	C.2	1	UNK0	0.000	
28	  C8	11.660	9.350	26.250	C.2	1	UNK0	0.000	
29	  C9	11.540	9.660	24.890	C.2	1	UNK0	0.000	
30	 C10	10.870	8.050	28.260	C.2	1	UNK0	0.000	
31	  N3	9.970	7.420	28.940	N.pl3	1	UNK0	0.000	
32	  N4	12.000	8.030	28.870	N.pl3	1	UNK0	0.000	
33	 C11	8.810	7.130	22.180	C.2	1	UNK0	0.000	
34	  N5	8.520	5.820	22.250	N.pl3	1	UNK0	0.000	
35	  O1	9.930	7.520	21.860	O.2	1	UNK0	0.000	
36	 C12	9.070	4.750	21.630	C.2	1	UNK0	0.000	
37	  N6	9.930	4.850	20.570	N.2	1	UNK0	0.000	
38	  N7	8.460	3.630	22.020	N.2	1	UNK0	0.000	
39	 C13	9.260	2.570	19.970	C.2	1	UNK0	0.000	
40	 C14	10.000	3.750	19.770	C.2	1	UNK0	0.000	
41	 C15	8.570	2.550	21.200	C.2	1	UNK0	0.000	
42	 C16	7.390	1.910	18.640	C.2	1	UNK0	0.000	
43	 C17	8.810	1.750	18.910	C.2	1	UNK0	0.000	
44	 C18	6.840	0.770	18.080	C.2	1	UNK0	0.000	
45	 C19	9.450	0.700	18.690	C.2	1	UNK0	0.000	
46	 C20	6.810	-0.740	18.250	C.2	1	UNK0	0.000	
47	 C21	8.780	0.010	18.520	C.2	1	UNK0	0.000	
48	  S1	6.370	3.400	18.890	S.o2	1	UNK0	0.000	
49	  O2	5.450	3.180	19.960	O.2	1	UNK0	0.000	
50	  O3	7.220	4.590	18.810	O.2	1	UNK0	0.000	
51	  N8	5.460	3.480	17.570	N.3	1	UNK0	0.000	
52	 C22	4.260	9.000	24.180	C.3	1	UNK0	0.000	
53	  F1	3.680	8.120	25.040	 F	1	UNK0	0.000	
54	  F2	3.540	8.950	23.030	 F	1	UNK0	0.000	
55	  F3	4.050	10.260	24.710	 F	1	UNK0	0.000	
@<TRIPOS>BOND
1 19 20 1
2 19 23 2
3 19 33 1
4 20 21 1
5 20 24 1
6 21 22 2
7 22 23 1
8 22 52 1
9 15 23 1
10 24 25 2
11 24 27 1
12 9 25 1
13 25 26 1
14 26 28 2
15 26 30 1
16 2 27 1
17 27 29 2
18 3 28 1
19 28 29 1
20 1 29 1
21 30 31 2
22 30 32 1
23 5 31 1
24 13 31 1
25 6 32 1
26 8 32 1
27 33 34 1
28 33 35 2
29 4 34 1
30 34 36 1
31 36 37 2
32 36 38 1
33 37 40 1
34 38 41 2
35 39 40 2
36 39 41 1
37 39 43 1
38 10 40 1
39 16 41 1
40 42 43 2
41 42 44 1
42 42 48 1
43 43 45 1
44 18 44 1
45 44 46 2
46 7 45 1
47 45 47 2
48 17 46 1
49 46 47 1
50 14 47 1
51 48 49 2
52 48 50 2
53 48 51 1
54 11 51 1
55 12 51 1
56 52 53 1
57 52 54 1
58 52 55 1
@<TRIPOS>SUBSTRUCTURE
1	UNK0	1	GROUP	1 ****	UNK
