# created with PyMOL 2.5.0
@<TRIPOS>MOLECULE
BDB50096105
55 58 1                 
SMALL
USER_CHARGES
@<TRIPOS>ATOM
1	 H05	11.000	9.990	22.370	 H	1	UNK0	0.000	
2	 H03	8.790	9.140	21.750	 H	1	UNK0	0.000	
3	 H04	11.900	9.620	24.600	 H	1	UNK0	0.000	
4	 H10	5.940	5.430	20.690	 H	1	UNK0	0.000	
5	 H07	9.350	7.050	27.450	 H	1	UNK0	0.000	
6	 H08	12.410	9.450	26.610	 H	1	UNK0	0.000	
7	 H14	11.130	1.980	18.430	 H	1	UNK0	0.000	
8	 H09	12.130	8.550	28.130	 H	1	UNK0	0.000	
9	 H02	8.250	7.600	25.740	 H	1	UNK0	0.000	
10	 H11	10.190	3.760	18.230	 H	1	UNK0	0.000	
11	 H17	8.270	-0.380	15.400	 H	1	UNK0	0.000	
12	 H18	7.060	-1.620	15.540	 H	1	UNK0	0.000	
13	 H06	10.570	7.480	28.570	 H	1	UNK0	0.000	
14	 H16	12.310	-0.080	18.200	 H	1	UNK0	0.000	
15	 H01	4.410	6.900	21.420	 H	1	UNK0	0.000	
16	 H12	6.620	1.600	19.340	 H	1	UNK0	0.000	
17	 H15	11.110	-2.220	17.880	 H	1	UNK0	0.000	
18	 H13	8.670	-2.220	17.690	 H	1	UNK0	0.000	
19	  C1	6.600	7.260	22.060	C.2	1	UNK0	0.000	
20	  N1	7.090	7.830	23.380	N.pl3	1	UNK0	0.000	
21	  N2	5.970	8.040	24.390	N.2	1	UNK0	0.000	
22	  C2	4.740	7.740	23.670	C.2	1	UNK0	0.000	
23	  C3	5.100	7.240	22.170	C.2	1	UNK0	0.000	
24	  C4	8.390	8.270	23.710	C.2	1	UNK0	0.000	
25	  C5	8.880	8.120	25.030	C.2	1	UNK0	0.000	
26	  C6	10.160	8.580	25.390	C.2	1	UNK0	0.000	
27	  C7	9.160	8.960	22.760	C.2	1	UNK0	0.000	
28	  C8	10.890	9.280	24.410	C.2	1	UNK0	0.000	
29	  C9	10.390	9.480	23.120	C.2	1	UNK0	0.000	
30	 C10	10.770	8.310	26.730	C.2	1	UNK0	0.000	
31	  N3	10.240	7.520	27.590	N.pl3	1	UNK0	0.000	
32	  N4	11.880	8.790	27.150	N.pl3	1	UNK0	0.000	
33	 C11	7.460	6.720	21.080	C.2	1	UNK0	0.000	
34	  N5	6.860	5.710	20.400	N.pl3	1	UNK0	0.000	
35	  O1	8.670	6.880	21.110	O.2	1	UNK0	0.000	
36	 C12	7.450	4.710	19.730	C.2	1	UNK0	0.000	
37	  N6	8.690	4.800	19.170	N.2	1	UNK0	0.000	
38	  N7	6.680	3.610	19.750	N.2	1	UNK0	0.000	
39	 C13	8.520	2.400	18.650	C.2	1	UNK0	0.000	
40	 C14	9.190	3.650	18.650	C.2	1	UNK0	0.000	
41	 C15	7.230	2.480	19.230	C.2	1	UNK0	0.000	
42	 C16	8.450	-0.080	17.960	C.2	1	UNK0	0.000	
43	 C17	9.120	1.160	18.220	C.2	1	UNK0	0.000	
44	 C18	9.170	-1.290	17.910	C.2	1	UNK0	0.000	
45	 C19	10.530	1.110	18.250	C.2	1	UNK0	0.000	
46	 C20	10.560	-1.290	17.990	C.2	1	UNK0	0.000	
47	 C21	11.230	-0.100	18.140	C.2	1	UNK0	0.000	
48	  S1	6.860	-0.140	17.090	S.o2	1	UNK0	0.000	
49	  O2	6.110	-1.250	17.620	O.2	1	UNK0	0.000	
50	  O3	6.310	1.180	16.920	O.2	1	UNK0	0.000	
51	  N8	7.290	-0.640	15.600	N.3	1	UNK0	0.000	
52	 C22	3.330	7.850	24.260	C.3	1	UNK0	0.000	
53	  F1	2.970	6.700	24.910	 F	1	UNK0	0.000	
54	  F2	2.400	8.010	23.270	 F	1	UNK0	0.000	
55	  F3	3.150	8.880	25.120	 F	1	UNK0	0.000	
@<TRIPOS>BOND
1 19 20 1
2 19 23 2
3 19 33 1
4 20 21 1
5 20 24 1
6 21 22 2
7 22 23 1
8 22 52 1
9 15 23 1
10 24 25 2
11 24 27 1
12 9 25 1
13 25 26 1
14 26 28 2
15 26 30 1
16 2 27 1
17 27 29 2
18 3 28 1
19 28 29 1
20 1 29 1
21 30 31 2
22 30 32 1
23 5 31 1
24 13 31 1
25 6 32 1
26 8 32 1
27 33 34 1
28 33 35 2
29 4 34 1
30 34 36 1
31 36 37 2
32 36 38 1
33 37 40 1
34 38 41 2
35 39 40 2
36 39 41 1
37 39 43 1
38 10 40 1
39 16 41 1
40 42 43 2
41 42 44 1
42 42 48 1
43 43 45 1
44 18 44 1
45 44 46 2
46 7 45 1
47 45 47 2
48 17 46 1
49 46 47 1
50 14 47 1
51 48 49 2
52 48 50 2
53 48 51 1
54 11 51 1
55 12 51 1
56 52 53 1
57 52 54 1
58 52 55 1
@<TRIPOS>SUBSTRUCTURE
1	UNK0	1	GROUP	1 ****	UNK
