# created with PyMOL 2.5.0
@<TRIPOS>MOLECULE
BDB50096105
55 58 1                 
SMALL
USER_CHARGES
@<TRIPOS>ATOM
1	 H05	9.460	10.210	22.760	 H	1	UNK0	0.000	
2	 H03	7.100	9.970	22.210	 H	1	UNK0	0.000	
3	 H04	10.360	9.410	24.880	 H	1	UNK0	0.000	
4	 H10	3.490	7.140	20.800	 H	1	UNK0	0.000	
5	 H07	7.650	7.010	27.520	 H	1	UNK0	0.000	
6	 H08	10.250	9.990	27.180	 H	1	UNK0	0.000	
7	 H14	7.720	3.270	17.350	 H	1	UNK0	0.000	
8	 H09	10.220	8.850	28.560	 H	1	UNK0	0.000	
9	 H02	6.340	8.430	26.160	 H	1	UNK0	0.000	
10	 H11	7.370	5.220	17.900	 H	1	UNK0	0.000	
11	 H17	3.300	4.100	13.190	 H	1	UNK0	0.000	
12	 H18	2.120	3.010	13.720	 H	1	UNK0	0.000	
13	 H06	8.750	7.510	28.790	 H	1	UNK0	0.000	
14	 H16	8.260	1.310	16.060	 H	1	UNK0	0.000	
15	 H01	2.290	8.520	22.010	 H	1	UNK0	0.000	
16	 H12	3.220	4.050	18.020	 H	1	UNK0	0.000	
17	 H15	6.520	0.150	14.730	 H	1	UNK0	0.000	
18	 H13	4.260	1.080	14.580	 H	1	UNK0	0.000	
19	  C1	4.550	8.530	22.520	C.2	1	UNK0	0.000	
20	  N1	5.200	8.950	23.830	N.pl3	1	UNK0	0.000	
21	  N2	4.180	9.360	24.890	N.2	1	UNK0	0.000	
22	  C2	2.880	9.260	24.240	C.2	1	UNK0	0.000	
23	  C3	3.080	8.740	22.720	C.2	1	UNK0	0.000	
24	  C4	6.580	9.090	24.130	C.2	1	UNK0	0.000	
25	  C5	7.050	8.750	25.410	C.2	1	UNK0	0.000	
26	  C6	8.430	8.820	25.720	C.2	1	UNK0	0.000	
27	  C7	7.450	9.620	23.180	C.2	1	UNK0	0.000	
28	  C8	9.290	9.300	24.700	C.2	1	UNK0	0.000	
29	  C9	8.790	9.750	23.480	C.2	1	UNK0	0.000	
30	 C10	8.960	8.480	27.050	C.2	1	UNK0	0.000	
31	  N3	8.480	7.530	27.790	N.pl3	1	UNK0	0.000	
32	  N4	9.920	9.140	27.620	N.pl3	1	UNK0	0.000	
33	 C11	5.280	7.890	21.470	C.2	1	UNK0	0.000	
34	  N5	4.470	7.200	20.630	N.pl3	1	UNK0	0.000	
35	  O1	6.490	7.800	21.480	O.2	1	UNK0	0.000	
36	 C12	4.860	6.330	19.650	C.2	1	UNK0	0.000	
37	  N6	6.130	6.210	19.200	N.2	1	UNK0	0.000	
38	  N7	3.810	5.600	19.220	N.2	1	UNK0	0.000	
39	 C13	5.350	4.420	17.710	C.2	1	UNK0	0.000	
40	 C14	6.340	5.270	18.250	C.2	1	UNK0	0.000	
41	 C15	4.070	4.660	18.270	C.2	1	UNK0	0.000	
42	 C16	4.660	2.750	15.930	C.2	1	UNK0	0.000	
43	 C17	5.620	3.390	16.770	C.2	1	UNK0	0.000	
44	 C18	4.970	1.560	15.250	C.2	1	UNK0	0.000	
45	 C19	6.930	2.850	16.740	C.2	1	UNK0	0.000	
46	 C20	6.270	1.040	15.290	C.2	1	UNK0	0.000	
47	 C21	7.240	1.700	16.020	C.2	1	UNK0	0.000	
48	  S1	3.330	3.770	15.200	S.o2	1	UNK0	0.000	
49	  O2	2.080	3.450	15.860	O.2	1	UNK0	0.000	
50	  O3	3.780	5.120	15.000	O.2	1	UNK0	0.000	
51	  N8	3.100	3.240	13.710	N.3	1	UNK0	0.000	
52	 C22	1.550	9.540	24.940	C.3	1	UNK0	0.000	
53	  F1	0.580	9.820	24.030	 F	1	UNK0	0.000	
54	  F2	1.570	10.580	25.820	 F	1	UNK0	0.000	
55	  F3	1.110	8.440	25.630	 F	1	UNK0	0.000	
@<TRIPOS>BOND
1 19 20 1
2 19 23 2
3 19 33 1
4 20 21 1
5 20 24 1
6 21 22 2
7 22 23 1
8 22 52 1
9 15 23 1
10 24 25 2
11 24 27 1
12 9 25 1
13 25 26 1
14 26 28 2
15 26 30 1
16 2 27 1
17 27 29 2
18 3 28 1
19 28 29 1
20 1 29 1
21 30 31 2
22 30 32 1
23 5 31 1
24 13 31 1
25 6 32 1
26 8 32 1
27 33 34 1
28 33 35 2
29 4 34 1
30 34 36 1
31 36 37 2
32 36 38 1
33 37 40 1
34 38 41 2
35 39 40 2
36 39 41 1
37 39 43 1
38 10 40 1
39 16 41 1
40 42 43 2
41 42 44 1
42 42 48 1
43 43 45 1
44 18 44 1
45 44 46 2
46 7 45 1
47 45 47 2
48 17 46 1
49 46 47 1
50 14 47 1
51 48 49 2
52 48 50 2
53 48 51 1
54 11 51 1
55 12 51 1
56 52 53 1
57 52 54 1
58 52 55 1
@<TRIPOS>SUBSTRUCTURE
1	UNK0	1	GROUP	1 ****	UNK
