# created with PyMOL 2.5.0
@<TRIPOS>MOLECULE
lig
27 29 1                 
SMALL
USER_CHARGES
@<TRIPOS>ATOM
1	  PA	5.061	8.190	20.612	P.3	1	ADP2001	0.000	
2	  PB	4.600	5.352	21.092	P.3	1	ADP2001	0.000	
3	 C5'	5.512	8.620	23.170	C.3	1	ADP2001	0.000	
4	 O5'	4.552	8.557	22.088	O.3	1	ADP2001	0.000	
5	 C4'	4.864	8.410	24.517	C.3	1	ADP2001	0.000	
6	 O4'	4.202	9.688	24.892	O.3	1	ADP2001	0.000	
7	 C3'	3.702	7.435	24.526	C.3	1	ADP2001	0.000	
8	 O3'	4.192	6.095	24.738	O.3	1	ADP2001	0.000	
9	 C2'	2.903	7.876	25.820	C.3	1	ADP2001	0.000	
10	 O2'	3.598	7.431	27.025	O.3	1	ADP2001	0.000	
11	 C1'	3.088	9.413	25.746	C.3	1	ADP2001	0.000	
12	  N1	-1.896	10.576	26.425	N.2	1	ADP2001	0.000	
13	 O1A	3.872	8.222	19.697	O.co2	1	ADP2001	0.000	
14	 O1B	3.142	5.709	20.804	O.co2	1	ADP2001	0.000	
15	  C2	-1.020	9.978	27.201	C.2	1	ADP2001	0.000	
16	 O2A	6.248	8.969	20.233	O.co2	1	ADP2001	0.000	
17	 O2B	4.899	4.994	22.507	O.co2	1	ADP2001	0.000	
18	  N3	0.264	9.743	26.944	N.2	1	ADP2001	0.000	
19	 O3A	5.467	6.622	20.782	O.3	1	ADP2001	0.000	
20	 O3B	5.189	4.378	20.030	O.co2	1	ADP2001	0.000	
21	  C4	0.644	10.202	25.753	C.2	1	ADP2001	0.000	
22	  C5	-0.136	10.837	24.860	C.2	1	ADP2001	0.000	
23	  C6	-1.511	11.024	25.225	C.2	1	ADP2001	0.000	
24	  N6	-2.453	11.545	24.374	N.pl3	1	ADP2001	0.000	
25	  N7	0.620	11.143	23.730	N.2	1	ADP2001	0.000	
26	  C8	1.790	10.694	23.979	C.2	1	ADP2001	0.000	
27	  N9	1.871	10.129	25.167	N.2	1	ADP2001	0.000	
@<TRIPOS>BOND
1 1 4 1
2 1 13 1
3 1 16 2
4 1 19 1
5 2 14 1
6 2 17 1
7 2 19 1
8 2 20 2
9 3 5 1
10 3 4 1
11 5 6 1
12 5 7 1
13 6 11 1
14 7 8 1
15 7 9 1
16 9 10 1
17 9 11 1
18 11 27 1
19 12 15 ar
20 15 18 ar
21 18 21 ar
22 21 22 ar
23 22 23 ar
24 12 23 ar
25 23 24 1
26 22 25 ar
27 25 26 ar
28 21 27 ar
29 26 27 ar
@<TRIPOS>SUBSTRUCTURE
1	ADP2001	1	GROUP	1 A	ADP
