# created with PyMOL 2.5.0
@<TRIPOS>MOLECULE
lig
44 45 1                 
SMALL
USER_CHARGES
@<TRIPOS>ATOM
1	  C1	5.554	8.930	20.838	C.2	1	KOS280	0.000	
2	  N1	4.828	7.697	20.597	N.pl3	1	KOS280	0.000	
3	  O1	6.019	9.419	19.925	O.2	1	KOS280	0.000	
4	  C2	5.655	9.468	22.283	C.3	1	KOS280	0.000	
5	  N2	-2.565	11.304	24.049	N.pl3	1	KOS280	0.000	
6	  O2	1.565	12.310	24.039	O.3	1	KOS280	0.000	
7	  C3	4.496	9.624	23.010	C.3	1	KOS280	0.000	
8	  O3	-0.499	10.457	24.163	O.3	1	KOS280	0.000	
9	  C4	4.320	10.088	24.392	C.3	1	KOS280	0.000	
10	  O4	-1.849	10.580	26.089	O.co2	1	KOS280	0.000	
11	  C5	3.208	10.607	24.897	C.3	1	KOS280	0.000	
12	  O5	1.709	5.262	28.603	O.3	1	KOS280	0.000	
13	  C6	1.909	10.836	24.176	C.3	1	KOS280	0.000	
14	  O6	4.251	6.622	28.715	O.3	1	KOS280	0.000	
15	  C7	0.663	10.210	24.911	C.3	1	KOS280	0.000	
16	  C8	0.708	8.604	25.211	C.3	1	KOS280	0.000	
17	  O8	1.077	4.752	21.772	O.2	1	KOS280	0.000	
18	  C9	0.728	8.211	26.454	C.3	1	KOS280	0.000	
19	  O9	6.070	6.545	22.749	O.2	1	KOS280	0.000	
20	 C10	0.749	6.824	27.065	C.3	1	KOS280	0.000	
21	 C11	1.845	6.645	28.125	C.3	1	KOS280	0.000	
22	 C12	3.335	6.772	27.617	C.3	1	KOS280	0.000	
23	 C13	3.752	5.643	26.590	C.3	1	KOS280	0.000	
24	 C14	5.191	5.537	25.975	C.3	1	KOS280	0.000	
25	 C15	5.288	4.620	24.583	C.3	1	KOS280	0.000	
26	 C16	4.333	5.069	23.427	C.2	1	KOS280	0.000	
27	 C17	3.030	4.629	23.104	C.2	1	KOS280	0.000	
28	 C18	2.215	5.191	21.959	C.2	1	KOS280	0.000	
29	 C19	2.820	6.255	21.094	C.2	1	KOS280	0.000	
30	 C20	4.103	6.713	21.336	C.2	1	KOS280	0.000	
31	 C21	4.918	6.128	22.530	C.2	1	KOS280	0.000	
32	 C22	7.053	9.757	22.775	C.3	1	KOS280	0.000	
33	 C23	2.556	13.255	23.853	C.3	1	KOS280	0.000	
34	 C24	-1.663	10.765	24.895	C.2	1	KOS280	0.000	
35	 C25	0.701	7.685	23.994	C.3	1	KOS280	0.000	
36	 C26	-0.674	6.666	27.644	C.3	1	KOS280	0.000	
37	 C27	4.083	7.684	29.919	C.3	1	KOS280	0.000	
38	 C28	5.716	6.982	25.786	C.3	1	KOS280	0.000	
39	 N29	2.342	3.590	23.842	N.pl3	1	KOS280	0.000	
40	 C30	2.850	2.239	24.045	C.3	1	KOS280	0.000	
41	 C31	2.710	1.152	22.908	C.3	1	KOS280	0.000	
42	 N32	1.521	0.891	21.959	N.3	1	KOS280	0.000	
43	 C33	1.784	-0.242	21.113	C.3	1	KOS280	0.000	
44	 C34	1.276	1.903	20.975	C.3	1	KOS280	0.000	
@<TRIPOS>BOND
1 1 3 2
2 1 4 1
3 1 2 1
4 4 7 1
5 4 32 1
6 6 33 1
7 7 9 1
8 8 34 1
9 9 11 1
10 11 13 1
11 6 13 1
12 13 15 1
13 14 22 1
14 8 15 1
15 15 16 1
16 16 18 1
17 16 35 1
18 18 20 1
19 20 21 1
20 20 36 1
21 12 21 1
22 21 22 1
23 22 23 1
24 23 24 1
25 24 25 1
26 24 38 1
27 25 26 1
28 26 27 ar
29 26 31 ar
30 27 28 ar
31 27 39 1
32 17 28 2
33 28 29 ar
34 29 30 ar
35 2 30 1
36 30 31 ar
37 19 31 2
38 5 34 1
39 10 34 2
40 14 37 1
41 39 40 1
42 40 41 1
43 41 42 1
44 42 43 1
45 42 44 1
@<TRIPOS>SUBSTRUCTURE
1	KOS280	1	GROUP	1 A	KOS
