# created with PyMOL 2.5.0
@<TRIPOS>MOLECULE
lig
27 29 1                 
SMALL
USER_CHARGES
@<TRIPOS>ATOM
1	  C1	4.408	11.689	23.792	C.2	1	PU31224	0.000	
2	  N1	0.829	11.244	23.723	N.2	1	PU31224	0.000	
3	  O1	7.738	13.669	25.381	O.3	1	PU31224	0.000	
4	  C2	4.210	12.834	24.597	C.2	1	PU31224	0.000	
5	  N2	2.095	10.010	25.163	N.2	1	PU31224	0.000	
6	  O2	5.313	14.671	25.857	O.3	1	PU31224	0.000	
7	  C3	5.334	13.504	25.118	C.2	1	PU31224	0.000	
8	  N3	-1.751	10.464	26.303	N.2	1	PU31224	0.000	
9	  O3	8.121	11.336	23.869	O.3	1	PU31224	0.000	
10	  C4	6.678	13.020	24.849	C.2	1	PU31224	0.000	
11	  N4	0.370	9.518	26.811	N.2	1	PU31224	0.000	
12	  C5	6.847	11.839	24.029	C.2	1	PU31224	0.000	
13	  N5	-2.170	11.665	24.337	N.pl3	1	PU31224	0.000	
14	  C6	5.685	11.229	23.513	C.2	1	PU31224	0.000	
15	  C7	8.063	14.953	24.815	C.3	1	PU31224	0.000	
16	  C8	4.178	15.490	25.903	C.3	1	PU31224	0.000	
17	  C9	3.235	10.965	23.156	C.3	1	PU31224	0.000	
18	 C10	2.020	10.709	24.012	C.2	1	PU31224	0.000	
19	 C11	0.078	10.843	24.774	C.2	1	PU31224	0.000	
20	 C12	0.885	10.038	25.683	C.2	1	PU31224	0.000	
21	 C13	-1.325	10.984	25.134	C.2	1	PU31224	0.000	
22	 C14	-0.929	9.747	27.111	C.2	1	PU31224	0.000	
23	 C15	3.210	9.256	25.737	C.3	1	PU31224	0.000	
24	 C16	2.958	7.795	25.369	C.3	1	PU31224	0.000	
25	 C17	4.065	7.152	24.553	C.3	1	PU31224	0.000	
26	 C18	4.085	5.671	24.950	C.3	1	PU31224	0.000	
27	 C19	8.283	10.130	23.082	C.3	1	PU31224	0.000	
@<TRIPOS>BOND
1 1 17 1
2 2 19 ar
3 3 15 1
4 1 4 ar
5 5 23 1
6 6 16 1
7 4 7 ar
8 6 7 1
9 9 12 1
10 3 10 1
11 7 10 ar
12 11 22 ar
13 10 12 ar
14 12 14 ar
15 1 14 ar
16 17 18 1
17 2 18 ar
18 5 18 ar
19 19 20 ar
20 19 21 ar
21 5 20 ar
22 11 20 ar
23 8 21 ar
24 13 21 1
25 8 22 ar
26 23 24 1
27 24 25 1
28 25 26 1
29 9 27 1
@<TRIPOS>SUBSTRUCTURE
1	PU31224	1	GROUP	1 A	PU3
