# created with PyMOL 2.5.0
@<TRIPOS>MOLECULE
lig
23 26 1                 
SMALL
USER_CHARGES
@<TRIPOS>ATOM
1	  C1	4.226	11.545	23.896	C.2	1	PU41224	0.000	
2	  N1	0.788	11.008	23.827	N.2	1	PU41224	0.000	
3	  O1	6.501	14.732	25.264	O.3	1	PU41224	0.000	
4	  C2	3.524	12.719	24.269	C.2	1	PU41224	0.000	
5	  N2	2.065	9.722	25.295	N.2	1	PU41224	0.000	
6	  C3	4.329	13.782	24.725	C.2	1	PU41224	0.000	
7	  N3	-1.718	10.370	26.408	N.2	1	PU41224	0.000	
8	  C4	5.730	13.677	24.793	C.2	1	PU41224	0.000	
9	  N4	0.416	9.337	26.981	N.2	1	PU41224	0.000	
10	  C5	6.387	12.496	24.420	C.2	1	PU41224	0.000	
11	  N5	-2.164	11.624	24.378	N.pl3	1	PU41224	0.000	
12	  C6	5.610	11.423	23.979	C.2	1	PU41224	0.000	
13	  C7	5.931	15.790	26.029	C.3	1	PU41224	0.000	
14	  C9	3.264	10.469	23.421	C.3	1	PU41224	0.000	
15	 C10	1.921	10.388	24.145	C.2	1	PU41224	0.000	
16	 C11	-0.045	10.627	24.836	C.2	1	PU41224	0.000	
17	 C12	0.829	9.853	25.748	C.2	1	PU41224	0.000	
18	 C13	-1.383	10.899	25.210	C.2	1	PU41224	0.000	
19	 C14	-0.976	9.579	27.338	C.2	1	PU41224	0.000	
20	 C15	3.183	9.023	25.897	C.3	1	PU41224	0.000	
21	 C16	3.048	7.518	25.745	C.3	1	PU41224	0.000	
22	 C17	3.624	6.971	24.661	C.3	1	PU41224	0.000	
23	 C18	5.173	6.971	24.503	C.3	1	PU41224	0.000	
@<TRIPOS>BOND
1 1 4 ar
2 1 12 ar
3 2 15 ar
4 3 13 1
5 4 6 ar
6 5 15 ar
7 5 17 ar
8 6 8 ar
9 7 18 ar
10 3 8 1
11 9 19 ar
12 8 10 ar
13 10 12 ar
14 1 14 1
15 14 15 1
16 2 16 ar
17 16 18 ar
18 9 17 ar
19 15 17 1
20 16 17 ar
21 11 18 1
22 7 19 ar
23 5 20 1
24 20 21 1
25 21 22 1
26 22 23 1
@<TRIPOS>SUBSTRUCTURE
1	PU41224	1	GROUP	1 A	PU4
