# created with PyMOL 2.5.0
@<TRIPOS>MOLECULE
lig
23 25 1                 
SMALL
USER_CHARGES
@<TRIPOS>ATOM
1	  C1	5.634	11.684	23.638	C.2	1	PU51224	0.000	
2	  N1	0.883	11.162	23.844	N.2	1	PU51224	0.000	
3	  O1	4.049	15.042	25.457	O.3	1	PU51224	0.000	
4	  C2	6.491	12.645	24.154	C.2	1	PU51224	0.000	
5	  N2	2.159	10.023	25.243	N.2	1	PU51224	0.000	
6	  C3	5.964	13.765	24.765	C.2	1	PU51224	0.000	
7	  N3	-1.699	10.435	26.395	N.2	1	PU51224	0.000	
8	  C4	4.589	13.947	24.839	C.2	1	PU51224	0.000	
9	  N4	0.461	9.590	26.946	N.2	1	PU51224	0.000	
10	  C5	3.717	12.995	24.364	C.2	1	PU51224	0.000	
11	  N5	-2.073	11.553	24.352	N.pl3	1	PU51224	0.000	
12	  C6	4.247	11.869	23.766	C.2	1	PU51224	0.000	
13	  C7	4.795	16.232	25.734	C.3	1	PU51224	0.000	
14	  C9	3.308	10.836	23.184	C.3	1	PU51224	0.000	
15	 C10	2.109	10.652	24.079	C.2	1	PU51224	0.000	
16	 C11	0.121	10.789	24.863	C.2	1	PU51224	0.000	
17	 C12	0.963	10.044	25.794	C.2	1	PU51224	0.000	
18	 C13	-1.271	10.918	25.207	C.2	1	PU51224	0.000	
19	 C14	-0.852	9.755	27.203	C.2	1	PU51224	0.000	
20	 C15	3.350	9.413	25.855	C.3	1	PU51224	0.000	
21	 C16	3.307	7.911	25.582	C.3	1	PU51224	0.000	
22	 C17	3.626	7.473	24.348	C.3	1	PU51224	0.000	
23	 C18	5.084	7.327	23.886	C.3	1	PU51224	0.000	
@<TRIPOS>BOND
1 1 4 ar
2 1 12 ar
3 2 15 ar
4 3 13 1
5 4 6 ar
6 5 15 ar
7 5 17 ar
8 6 8 ar
9 7 18 ar
10 3 8 1
11 9 19 ar
12 8 10 ar
13 10 12 ar
14 12 14 1
15 14 15 1
16 2 16 ar
17 16 18 ar
18 9 17 ar
19 16 17 ar
20 11 18 1
21 7 19 ar
22 5 20 1
23 20 21 1
24 21 22 1
25 22 23 1
@<TRIPOS>SUBSTRUCTURE
1	PU51224	1	GROUP	1 A	PU5
