# created with PyMOL 2.5.0
@<TRIPOS>MOLECULE
lig
24 27 1                 
SMALL
USER_CHARGES
@<TRIPOS>ATOM
1	  C1	4.204	11.923	23.766	C.2	1	PU61224	0.000	
2	  N1	0.870	11.066	23.880	N.2	1	PU61224	0.000	
3	  O1	6.477	15.004	25.334	O.2	1	PU61224	0.000	
4	  C2	5.597	11.747	23.751	C.2	1	PU61224	0.000	
5	  N2	2.164	9.972	25.258	N.2	1	PU61224	0.000	
6	  C3	6.444	12.737	24.262	C.2	1	PU61224	0.000	
7	  N3	-1.681	10.354	26.379	N.2	1	PU61224	0.000	
8	  O3	4.229	15.294	25.366	O.2	1	PU61224	0.000	
9	  C4	5.861	13.887	24.770	C.2	1	PU61224	0.000	
10	  N4	0.447	9.509	26.952	N.2	1	PU61224	0.000	
11	  C5	4.505	14.063	24.794	C.2	1	PU61224	0.000	
12	  N5	-2.122	11.511	24.362	N.pl3	1	PU61224	0.000	
13	  C6	3.632	13.103	24.295	C.2	1	PU61224	0.000	
14	  C7	5.461	15.935	25.730	C.2	1	PU61224	0.000	
15	  C9	3.335	10.824	23.174	C.3	1	PU61224	0.000	
16	 C10	2.133	10.631	24.070	C.2	1	PU61224	0.000	
17	 C11	0.081	10.698	24.906	C.2	1	PU61224	0.000	
18	 C12	0.909	10.012	25.781	C.2	1	PU61224	0.000	
19	 C13	-1.249	10.866	25.200	C.2	1	PU61224	0.000	
20	 C14	-0.861	9.698	27.234	C.2	1	PU61224	0.000	
21	 C15	3.343	9.353	25.875	C.3	1	PU61224	0.000	
22	 C16	3.225	7.830	25.674	C.3	1	PU61224	0.000	
23	 C17	3.570	7.355	24.254	C.3	1	PU61224	0.000	
24	 C18	5.048	7.489	23.888	C.3	1	PU61224	0.000	
@<TRIPOS>BOND
1 1 4 ar
2 1 13 ar
3 2 16 ar
4 3 14 ar
5 4 6 ar
6 5 16 ar
7 5 18 ar
8 6 9 ar
9 7 19 ar
10 8 14 ar
11 3 9 ar
12 10 20 ar
13 8 11 ar
14 9 11 ar
15 11 13 ar
16 1 15 1
17 15 16 1
18 2 17 ar
19 17 19 ar
20 10 18 ar
21 17 18 ar
22 12 19 1
23 7 20 ar
24 5 21 1
25 21 22 1
26 22 23 1
27 23 24 1
@<TRIPOS>SUBSTRUCTURE
1	PU61224	1	GROUP	1 A	PU6
