# created with PyMOL 2.5.0
@<TRIPOS>MOLECULE
lig
25 27 1                 
SMALL
USER_CHARGES
@<TRIPOS>ATOM
1	  C1	4.424	11.537	23.665	C.2	1	PU71224	0.000	
2	  N1	0.946	10.922	23.823	N.2	1	PU71224	0.000	
3	  C2	3.952	12.670	24.295	C.2	1	PU71224	0.000	
4	  N2	2.118	9.781	25.268	N.2	1	PU71224	0.000	
5	  O2	4.207	14.790	25.289	O.3	1	PU71224	0.000	
6	  C3	4.830	13.680	24.657	C.2	1	PU71224	0.000	
7	  N3	-1.724	10.410	26.306	N.2	1	PU71224	0.000	
8	  C4	6.220	13.588	24.477	C.2	1	PU71224	0.000	
9	  N4	0.451	9.450	26.946	N.2	1	PU71224	0.000	
10	  C5	6.724	12.431	23.845	C.2	1	PU71224	0.000	
11	  N5	-2.052	11.510	24.239	N.pl3	1	PU71224	0.000	
12	  C6	5.813	11.429	23.439	C.2	1	PU71224	0.000	
13	  C8	4.904	15.971	25.653	C.3	1	PU71224	0.000	
14	  C9	3.410	10.483	23.254	C.3	1	PU71224	0.000	
15	 C10	2.146	10.385	24.097	C.2	1	PU71224	0.000	
16	 C11	0.166	10.599	24.873	C.2	1	PU71224	0.000	
17	 C12	0.920	9.884	25.774	C.2	1	PU71224	0.000	
18	 C13	-1.177	10.824	25.135	C.2	1	PU71224	0.000	
19	 C14	-0.864	9.665	27.197	C.2	1	PU71224	0.000	
20	 C15	3.324	9.128	25.823	C.3	1	PU71224	0.000	
21	 C16	3.357	7.599	25.683	C.3	1	PU71224	0.000	
22	 C17	3.842	6.900	24.413	C.3	1	PU71224	0.000	
23	 C18	5.238	7.121	23.758	C.3	1	PU71224	0.000	
24	 C19	7.691	9.838	23.117	C.3	1	PU71224	0.000	
25	 O20	6.327	10.283	22.822	O.3	1	PU71224	0.000	
@<TRIPOS>BOND
1 1 14 1
2 2 16 ar
3 1 3 ar
4 4 20 1
5 5 13 1
6 3 6 ar
7 5 6 1
8 6 8 ar
9 9 19 ar
10 8 10 ar
11 10 12 ar
12 1 12 ar
13 14 15 1
14 2 15 ar
15 4 15 ar
16 16 17 ar
17 16 18 ar
18 4 17 ar
19 9 17 ar
20 7 18 ar
21 11 18 1
22 7 19 ar
23 20 21 1
24 21 22 1
25 22 23 1
26 24 25 1
27 12 25 1
@<TRIPOS>SUBSTRUCTURE
1	PU71224	1	GROUP	1 A	PU7
