# created with PyMOL 2.5.0
@<TRIPOS>MOLECULE
lig
28 30 1                 
SMALL
USER_CHARGES
@<TRIPOS>ATOM
1	  CL	2.508	13.963	24.375	Cl	1	PU81224	0.000	
2	  C1	4.202	11.884	23.677	C.2	1	PU81224	0.000	
3	  N1	0.667	11.291	23.696	N.2	1	PU81224	0.000	
4	  O1	7.528	13.788	25.364	O.3	1	PU81224	0.000	
5	  C2	5.448	11.292	23.637	C.2	1	PU81224	0.000	
6	  N2	1.959	10.215	25.094	N.2	1	PU81224	0.000	
7	  O2	7.837	11.256	24.166	O.3	1	PU81224	0.000	
8	  C3	6.562	11.903	24.183	C.2	1	PU81224	0.000	
9	  N3	-1.899	10.600	26.130	N.2	1	PU81224	0.000	
10	  O3	5.208	15.064	25.448	O.3	1	PU81224	0.000	
11	  C4	6.417	13.132	24.782	C.2	1	PU81224	0.000	
12	  N4	0.228	9.750	26.761	N.2	1	PU81224	0.000	
13	  C5	5.182	13.761	24.851	C.2	1	PU81224	0.000	
14	  N5	-2.342	11.768	24.066	N.pl3	1	PU81224	0.000	
15	  C6	4.051	13.144	24.303	C.2	1	PU81224	0.000	
16	  C7	8.054	14.967	24.731	C.3	1	PU81224	0.000	
17	  C8	8.226	10.348	23.119	C.3	1	PU81224	0.000	
18	  C9	3.079	11.086	23.026	C.3	1	PU81224	0.000	
19	 C10	1.900	10.852	23.930	C.2	1	PU81224	0.000	
20	 C11	-0.084	10.895	24.702	C.2	1	PU81224	0.000	
21	 C12	0.731	10.233	25.607	C.2	1	PU81224	0.000	
22	 C13	-1.433	11.070	24.982	C.2	1	PU81224	0.000	
23	 C14	-1.086	9.951	26.992	C.2	1	PU81224	0.000	
24	 C15	3.161	9.608	25.679	C.3	1	PU81224	0.000	
25	 C16	3.027	8.103	25.689	C.3	1	PU81224	0.000	
26	 C17	3.760	7.233	24.670	C.3	1	PU81224	0.000	
27	 C18	4.777	7.858	23.730	C.3	1	PU81224	0.000	
28	 C19	4.489	15.513	26.572	C.3	1	PU81224	0.000	
@<TRIPOS>BOND
1 2 18 1
2 3 20 ar
3 4 16 1
4 2 5 ar
5 6 24 1
6 7 17 1
7 5 8 ar
8 7 8 1
9 10 13 1
10 4 11 1
11 8 11 ar
12 12 23 ar
13 11 13 ar
14 13 15 ar
15 1 15 1
16 2 15 ar
17 18 19 1
18 3 19 ar
19 6 19 ar
20 20 21 ar
21 20 22 ar
22 6 21 ar
23 12 21 ar
24 9 22 ar
25 14 22 1
26 9 23 ar
27 24 25 1
28 25 26 1
29 26 27 1
30 10 28 1
@<TRIPOS>SUBSTRUCTURE
1	PU81224	1	GROUP	1 A	PU8
