# created with PyMOL 2.5.0
@<TRIPOS>MOLECULE
lig
29 31 1                 
SMALL
USER_CHARGES
@<TRIPOS>ATOM
1	  CL	2.325	13.987	24.276	Cl	1	PU91224	0.000	
2	  C1	0.762	10.230	25.575	C.2	1	PU91224	0.000	
3	  N1	0.386	9.663	26.722	N.2	1	PU91224	0.000	
4	  O1	7.886	11.812	24.366	O.3	1	PU91224	0.000	
5	  C2	-0.063	10.867	24.702	C.2	1	PU91224	0.000	
6	  N2	-1.782	10.429	26.192	N.2	1	PU91224	0.000	
7	  O2	7.293	14.261	25.538	O.3	1	PU91224	0.000	
8	  C3	-1.389	10.953	25.034	C.2	1	PU91224	0.000	
9	  N3	0.688	11.285	23.686	N.2	1	PU91224	0.000	
10	  O3	5.046	15.242	25.516	O.3	1	PU91224	0.000	
11	  C4	-0.922	9.794	27.008	C.2	1	PU91224	0.000	
12	  N4	1.995	10.208	25.116	N.2	1	PU91224	0.000	
13	  C5	1.939	10.871	23.925	C.2	1	PU91224	0.000	
14	  N5	-2.356	11.621	24.200	N.pl3	1	PU91224	0.000	
15	  C6	3.126	11.165	23.018	C.3	1	PU91224	0.000	
16	  C7	3.159	9.590	25.752	C.3	1	PU91224	0.000	
17	  C8	3.143	8.071	25.548	C.3	1	PU91224	0.000	
18	  C9	3.259	7.706	24.074	C.3	1	PU91224	0.000	
19	 C10	4.671	7.855	23.490	C.3	1	PU91224	0.000	
20	 C11	5.792	7.968	23.125	C.3	1	PU91224	0.000	
21	 C12	4.207	12.010	23.712	C.2	1	PU91224	0.000	
22	 C13	3.942	13.269	24.306	C.2	1	PU91224	0.000	
23	 C14	5.529	11.514	23.716	C.2	1	PU91224	0.000	
24	 C15	5.017	13.964	24.888	C.2	1	PU91224	0.000	
25	 C16	6.572	12.239	24.311	C.2	1	PU91224	0.000	
26	 C17	6.295	13.455	24.892	C.2	1	PU91224	0.000	
27	 C18	8.370	10.683	23.606	C.3	1	PU91224	0.000	
28	 C19	8.395	14.838	24.780	C.3	1	PU91224	0.000	
29	 C20	5.217	16.539	25.693	C.3	1	PU91224	0.000	
@<TRIPOS>BOND
1 1 22 1
2 2 3 ar
3 2 12 ar
4 3 11 ar
5 4 27 1
6 2 5 ar
7 5 8 ar
8 7 28 1
9 6 8 ar
10 8 14 1
11 5 9 ar
12 10 29 1
13 6 11 ar
14 12 16 1
15 9 13 ar
16 12 13 ar
17 13 15 1
18 16 17 1
19 17 18 1
20 18 19 1
21 19 20 1
22 15 21 1
23 21 22 ar
24 22 24 ar
25 21 23 ar
26 10 24 1
27 24 26 ar
28 4 25 1
29 23 25 ar
30 7 26 1
31 25 26 ar
@<TRIPOS>SUBSTRUCTURE
1	PU91224	1	GROUP	1 A	PU9
