# created with PyMOL 2.5.0
@<TRIPOS>MOLECULE
lig
30 32 1                 
SMALL
USER_CHARGES
@<TRIPOS>ATOM
1	  CL	2.445	13.980	24.290	Cl	1	PU11224	0.000	
2	  C1	0.709	10.247	25.603	C.2	1	PU11224	0.000	
3	  N1	0.275	9.791	26.738	N.2	1	PU11224	0.000	
4	  O1	7.959	11.625	24.091	O.3	1	PU11224	0.000	
5	  C2	-0.050	10.896	24.694	C.2	1	PU11224	0.000	
6	  N2	-1.768	10.552	26.130	N.2	1	PU11224	0.000	
7	  O2	7.445	13.994	25.171	O.3	1	PU11224	0.000	
8	  C3	-1.358	11.066	24.979	C.2	1	PU11224	0.000	
9	  N3	0.750	11.353	23.572	N.2	1	PU11224	0.000	
10	  O3	5.259	15.054	25.311	O.3	1	PU11224	0.000	
11	  C4	-1.006	9.963	26.988	C.2	1	PU11224	0.000	
12	  N4	2.047	10.249	25.120	N.2	1	PU11224	0.000	
13	  C5	1.952	10.923	23.826	C.2	1	PU11224	0.000	
14	  N5	-2.331	11.733	24.143	N.pl3	1	PU11224	0.000	
15	  C6	3.161	11.108	22.954	C.3	1	PU11224	0.000	
16	  C7	3.212	9.586	25.733	C.3	1	PU11224	0.000	
17	  C8	3.070	8.077	25.653	C.3	1	PU11224	0.000	
18	  C9	3.503	7.389	24.387	C.3	1	PU11224	0.000	
19	 C10	4.892	7.665	23.791	C.3	1	PU11224	0.000	
20	 C11	5.934	7.925	23.304	C.3	1	PU11224	0.000	
21	 C12	4.265	11.940	23.566	C.2	1	PU11224	0.000	
22	 C13	4.029	13.198	24.189	C.2	1	PU11224	0.000	
23	 C14	5.550	11.400	23.498	C.2	1	PU11224	0.000	
24	 C15	5.160	13.819	24.679	C.2	1	PU11224	0.000	
25	 C16	6.629	12.091	24.027	C.2	1	PU11224	0.000	
26	 C17	6.397	13.270	24.601	C.2	1	PU11224	0.000	
27	 C18	8.300	10.588	23.152	C.3	1	PU11224	0.000	
28	 C19	7.904	15.169	24.515	C.3	1	PU11224	0.000	
29	 C20	4.271	15.651	26.084	C.3	1	PU11224	0.000	
30	   F	-1.564	9.521	28.138	 F	1	PU11224	0.000	
@<TRIPOS>BOND
1 1 22 1
2 2 3 ar
3 2 12 ar
4 3 11 ar
5 4 27 1
6 2 5 ar
7 5 8 ar
8 7 28 1
9 6 8 ar
10 8 14 1
11 5 9 ar
12 10 29 1
13 6 11 ar
14 11 30 1
15 12 16 1
16 9 13 ar
17 12 13 ar
18 13 15 1
19 16 17 1
20 17 18 1
21 18 19 1
22 19 20 1
23 15 21 1
24 21 22 ar
25 22 24 ar
26 21 23 ar
27 10 24 1
28 24 26 ar
29 4 25 1
30 23 25 ar
31 7 26 1
32 25 26 ar
@<TRIPOS>SUBSTRUCTURE
1	PU11224	1	GROUP	1 A	PU1
