# created with PyMOL 2.5.0
@<TRIPOS>MOLECULE
ADRB2_case/data/3nya_JTZ.pdb
41 41 1                 
SMALL
USER_CHARGES
@<TRIPOS>ATOM
1	 H07	-3.933	8.268	-52.252	 H	1	UNK0	0.000	
2	 H09	-2.858	8.014	-55.646	 H	1	UNK0	0.000	
3	 H08	-4.222	8.497	-54.610	 H	1	UNK0	0.000	
4	 H14	-0.854	7.183	-54.713	 H	1	UNK0	0.000	
5	 H13	-1.374	6.299	-53.258	 H	1	UNK0	0.000	
6	 H12	-0.313	7.720	-53.105	 H	1	UNK0	0.000	
7	 H10	-3.653	6.811	-54.601	 H	1	UNK0	0.000	
8	 H15	-1.254	4.226	-47.922	 H	1	UNK0	0.000	
9	 H22	-1.079	-0.459	-54.038	 H	1	UNK0	0.000	
10	 H17	0.145	0.169	-48.092	 H	1	UNK0	0.000	
11	 H20	-3.371	0.866	-51.460	 H	1	UNK0	0.000	
12	 H19	-2.924	2.544	-51.982	 H	1	UNK0	0.000	
13	 H18	-1.125	-0.177	-50.190	 H	1	UNK0	0.000	
14	 H21	-0.763	1.632	-52.923	 H	1	UNK0	0.000	
15	 H16	0.108	2.385	-46.979	 H	1	UNK0	0.000	
16	 H11	-2.105	9.241	-53.665	 H	1	UNK0	0.000	
17	 H23	-2.662	-0.764	-53.056	 H	1	UNK0	0.000	
18	 H01	-1.737	5.635	-49.313	 H	1	UNK0	0.000	
19	 H02	-3.299	5.220	-48.532	 H	1	UNK0	0.000	
20	 H03	-4.479	6.057	-50.478	 H	1	UNK0	0.000	
21	 H04	-2.581	8.022	-49.572	 H	1	UNK0	0.000	
22	 H05	-3.396	6.011	-52.404	 H	1	UNK0	0.000	
23	 H06	-1.783	6.385	-51.658	 H	1	UNK0	0.000	
24	   C	-2.771	5.331	-49.479	C.3	1	UNK0	0.000	
25	   C	-3.464	6.419	-50.313	C.3	1	UNK0	0.000	
26	   O	-3.471	7.662	-49.598	O.3	1	UNK0	0.000	
27	   C	-2.841	6.642	-51.710	C.3	1	UNK0	0.000	
28	   N	-2.955	8.019	-52.212	N.3	1	UNK0	0.000	
29	   C	-3.346	7.853	-54.684	C.3	1	UNK0	0.000	
30	   C	-2.369	8.190	-53.554	C.3	1	UNK0	0.000	
31	   C	-1.139	7.282	-53.666	C.3	1	UNK0	0.000	
32	   O	-2.764	4.065	-50.162	O.3	1	UNK0	0.000	
33	   C	-1.952	3.091	-49.619	C.2	1	UNK0	0.000	
34	   C	-1.225	3.264	-48.433	C.2	1	UNK0	0.000	
35	   C	-0.463	2.224	-47.894	C.2	1	UNK0	0.000	
36	   C	-0.433	0.987	-48.521	C.2	1	UNK0	0.000	
37	   C	-1.147	0.798	-49.702	C.2	1	UNK0	0.000	
38	   C	-1.898	1.845	-50.280	C.2	1	UNK0	0.000	
39	   C	-2.564	1.583	-51.613	C.3	1	UNK0	0.000	
40	   C	-1.636	1.035	-52.659	C.2	1	UNK0	0.000	
41	   C	-1.803	-0.135	-53.290	C.2	1	UNK0	0.000	
@<TRIPOS>BOND
1 18 24 1
2 19 24 1
3 24 32 1
4 20 25 1
5 24 25 1
6 25 26 1
7 25 27 1
8 21 26 1
9 22 27 1
10 23 27 1
11 1 28 1
12 27 28 1
13 2 29 1
14 3 29 1
15 7 29 1
16 29 30 1
17 16 30 1
18 28 30 1
19 30 31 1
20 4 31 1
21 5 31 1
22 6 31 1
23 32 33 1
24 33 34 1
25 33 38 2
26 8 34 1
27 34 35 2
28 15 35 1
29 35 36 1
30 10 36 1
31 36 37 2
32 13 37 1
33 37 38 1
34 38 39 1
35 11 39 1
36 12 39 1
37 39 40 1
38 14 40 1
39 40 41 2
40 9 41 1
41 17 41 1
@<TRIPOS>SUBSTRUCTURE
1	UNK0	1	GROUP	1 ****	UNK
