# created with PyMOL 2.5.0
@<TRIPOS>MOLECULE
ADRB2_case/data/3nya_JTZ.pdb
41 41 1                 
SMALL
USER_CHARGES
@<TRIPOS>ATOM
1	 H07	-4.402	0.885	-54.957	 H	1	UNK0	0.000	
2	 H09	-3.342	2.956	-57.658	 H	1	UNK0	0.000	
3	 H08	-5.018	2.575	-57.194	 H	1	UNK0	0.000	
4	 H14	-4.779	-0.686	-56.122	 H	1	UNK0	0.000	
5	 H13	-4.049	-0.930	-57.727	 H	1	UNK0	0.000	
6	 H12	-5.462	0.136	-57.544	 H	1	UNK0	0.000	
7	 H10	-4.319	1.862	-58.668	 H	1	UNK0	0.000	
8	 H15	-2.725	2.537	-49.911	 H	1	UNK0	0.000	
9	 H22	-0.164	8.426	-54.003	 H	1	UNK0	0.000	
10	 H17	-3.507	6.505	-48.466	 H	1	UNK0	0.000	
11	 H20	-2.673	5.302	-53.761	 H	1	UNK0	0.000	
12	 H19	-3.372	6.841	-53.107	 H	1	UNK0	0.000	
13	 H18	-3.106	7.407	-50.738	 H	1	UNK0	0.000	
14	 H21	-0.375	6.340	-52.854	 H	1	UNK0	0.000	
15	 H16	-3.351	4.063	-48.064	 H	1	UNK0	0.000	
16	 H11	-2.594	0.775	-57.162	 H	1	UNK0	0.000	
17	 H23	-2.030	8.477	-54.288	 H	1	UNK0	0.000	
18	 H01	-3.705	2.505	-53.595	 H	1	UNK0	0.000	
19	 H02	-3.645	1.941	-51.892	 H	1	UNK0	0.000	
20	 H03	-1.217	1.207	-53.050	 H	1	UNK0	0.000	
21	 H04	-2.659	0.039	-51.523	 H	1	UNK0	0.000	
22	 H05	-2.536	-0.445	-54.801	 H	1	UNK0	0.000	
23	 H06	-1.497	0.981	-55.235	 H	1	UNK0	0.000	
24	   C	-3.058	2.198	-52.774	C.3	1	UNK0	0.000	
25	   C	-2.265	0.961	-53.224	C.3	1	UNK0	0.000	
26	   O	-2.659	-0.185	-52.457	O.3	1	UNK0	0.000	
27	   C	-2.398	0.634	-54.729	C.3	1	UNK0	0.000	
28	   N	-3.561	1.250	-55.382	N.3	1	UNK0	0.000	
29	   C	-4.108	2.180	-57.647	C.3	1	UNK0	0.000	
30	   C	-3.612	0.983	-56.831	C.3	1	UNK0	0.000	
31	   C	-4.542	-0.210	-57.073	C.3	1	UNK0	0.000	
32	   O	-2.186	3.296	-52.452	O.3	1	UNK0	0.000	
33	   C	-2.583	4.094	-51.399	C.2	1	UNK0	0.000	
34	   C	-2.815	3.606	-50.104	C.2	1	UNK0	0.000	
35	   C	-3.159	4.465	-49.059	C.2	1	UNK0	0.000	
36	   C	-3.257	5.830	-49.285	C.2	1	UNK0	0.000	
37	   C	-3.033	6.333	-50.565	C.2	1	UNK0	0.000	
38	   C	-2.715	5.478	-51.642	C.2	1	UNK0	0.000	
39	   C	-2.583	6.095	-53.018	C.3	1	UNK0	0.000	
40	   C	-1.280	6.807	-53.242	C.2	1	UNK0	0.000	
41	   C	-1.150	7.976	-53.884	C.2	1	UNK0	0.000	
@<TRIPOS>BOND
1 18 24 1
2 19 24 1
3 24 32 1
4 20 25 1
5 24 25 1
6 25 26 1
7 25 27 1
8 21 26 1
9 22 27 1
10 23 27 1
11 1 28 1
12 27 28 1
13 2 29 1
14 3 29 1
15 7 29 1
16 29 30 1
17 16 30 1
18 28 30 1
19 30 31 1
20 4 31 1
21 5 31 1
22 6 31 1
23 32 33 1
24 33 34 1
25 33 38 2
26 8 34 1
27 34 35 2
28 15 35 1
29 35 36 1
30 10 36 1
31 36 37 2
32 13 37 1
33 37 38 1
34 38 39 1
35 11 39 1
36 12 39 1
37 39 40 1
38 14 40 1
39 40 41 2
40 9 41 1
41 17 41 1
@<TRIPOS>SUBSTRUCTURE
1	UNK0	1	GROUP	1 ****	UNK
