# created with PyMOL 2.5.0
@<TRIPOS>MOLECULE
ADRB2_case/data/3nya_JTZ.pdb
41 41 1                 
SMALL
USER_CHARGES
@<TRIPOS>ATOM
1	 H07	-4.077	7.227	-51.761	 H	1	UNK0	0.000	
2	 H09	-3.327	3.788	-50.742	 H	1	UNK0	0.000	
3	 H08	-1.569	4.062	-50.771	 H	1	UNK0	0.000	
4	 H14	-3.378	7.197	-49.538	 H	1	UNK0	0.000	
5	 H13	-2.759	5.637	-48.942	 H	1	UNK0	0.000	
6	 H12	-4.377	5.731	-49.678	 H	1	UNK0	0.000	
7	 H10	-2.495	4.065	-52.291	 H	1	UNK0	0.000	
8	 H15	-5.372	10.208	-52.990	 H	1	UNK0	0.000	
9	 H22	-6.217	8.303	-59.287	 H	1	UNK0	0.000	
10	 H17	-5.956	13.932	-55.048	 H	1	UNK0	0.000	
11	 H20	-3.570	11.256	-58.059	 H	1	UNK0	0.000	
12	 H19	-3.428	9.622	-57.288	 H	1	UNK0	0.000	
13	 H18	-4.943	12.958	-57.088	 H	1	UNK0	0.000	
14	 H21	-5.787	10.632	-58.959	 H	1	UNK0	0.000	
15	 H16	-6.202	12.541	-53.010	 H	1	UNK0	0.000	
16	 H11	-1.780	6.318	-51.208	 H	1	UNK0	0.000	
17	 H23	-4.815	7.860	-58.104	 H	1	UNK0	0.000	
18	 H01	-2.347	9.850	-54.814	 H	1	UNK0	0.000	
19	 H02	-2.317	8.247	-55.620	 H	1	UNK0	0.000	
20	 H03	-1.393	8.169	-53.382	 H	1	UNK0	0.000	
21	 H04	-3.118	9.866	-52.667	 H	1	UNK0	0.000	
22	 H05	-2.051	6.096	-53.396	 H	1	UNK0	0.000	
23	 H06	-3.624	6.512	-54.203	 H	1	UNK0	0.000	
24	  C1	-2.769	8.845	-54.829	C.3	1	UNK0	0.000	
25	  C2	-2.479	8.182	-53.474	C.3	1	UNK0	0.000	
26	  O1	-3.076	8.941	-52.414	O.3	1	UNK0	0.000	
27	  C3	-2.949	6.713	-53.371	C.3	1	UNK0	0.000	
28	  N1	-3.649	6.386	-52.121	N.3	1	UNK0	0.000	
29	  C4	-2.519	4.330	-51.234	C.3	1	UNK0	0.000	
30	  C5	-2.750	5.836	-51.090	C.3	1	UNK0	0.000	
31	  C6	-3.360	6.121	-49.713	C.3	1	UNK0	0.000	
32	  O2	-4.182	8.954	-55.072	O.3	1	UNK0	0.000	
33	  C7	-4.704	10.231	-55.042	C.2	1	UNK0	0.000	
34	  C8	-5.281	10.803	-53.899	C.2	1	UNK0	0.000	
35	  C9	-5.742	12.121	-53.904	C.2	1	UNK0	0.000	
36	 C10	-5.614	12.897	-55.047	C.2	1	UNK0	0.000	
37	 C11	-5.046	12.344	-56.193	C.2	1	UNK0	0.000	
38	 C12	-4.602	11.005	-56.217	C.2	1	UNK0	0.000	
39	 C13	-4.087	10.455	-57.531	C.3	1	UNK0	0.000	
40	 C14	-5.164	9.914	-58.426	C.2	1	UNK0	0.000	
41	 C15	-5.414	8.611	-58.618	C.2	1	UNK0	0.000	
@<TRIPOS>BOND
1 18 24 1
2 19 24 1
3 24 32 1
4 20 25 1
5 24 25 1
6 25 26 1
7 25 27 1
8 21 26 1
9 22 27 1
10 23 27 1
11 1 28 1
12 27 28 1
13 2 29 1
14 3 29 1
15 7 29 1
16 29 30 1
17 16 30 1
18 28 30 1
19 30 31 1
20 4 31 1
21 5 31 1
22 6 31 1
23 32 33 1
24 33 34 1
25 33 38 2
26 8 34 1
27 34 35 2
28 15 35 1
29 35 36 1
30 10 36 1
31 36 37 2
32 13 37 1
33 37 38 1
34 38 39 1
35 11 39 1
36 12 39 1
37 39 40 1
38 14 40 1
39 40 41 2
40 9 41 1
41 17 41 1
@<TRIPOS>SUBSTRUCTURE
1	UNK0	1	GROUP	1 ****	UNK
