ADRB2_case/data/3nya_JTZ.pdb
 OpenBabel03092320063D

 20 20  0  0  0  0  0  0  0  0999 V2000
   -2.7707    5.3313  -49.4787 C   0  0  0  0  0  0  0  0  0  0  0  0
   -3.4640    6.4192  -50.3132 C   0  0  1  0  0  0  0  0  0  0  0  0
   -3.4706    7.6621  -49.5977 O   0  0  0  0  0  0  0  0  0  0  0  0
   -2.5516    7.9837  -49.5804 H   0  0  0  0  0  0  0  0  0  0  0  0
   -2.8406    6.6424  -51.7102 C   0  0  0  0  0  0  0  0  0  0  0  0
   -2.9550    8.0191  -52.2120 N   0  0  0  0  0  0  0  0  0  0  0  0
   -3.9426    8.2720  -52.2692 H   0  0  0  0  0  0  0  0  0  0  0  0
   -3.3456    7.8534  -54.6841 C   0  0  0  0  0  0  0  0  0  0  0  0
   -2.3691    8.1897  -53.5535 C   0  0  0  0  0  0  0  0  0  0  0  0
   -1.1391    7.2823  -53.6658 C   0  0  0  0  0  0  0  0  0  0  0  0
   -2.7637    4.0655  -50.1622 O   0  0  0  0  0  0  0  0  0  0  0  0
   -1.9521    3.0906  -49.6191 C   0  0  0  0  0  0  0  0  0  0  0  0
   -1.2247    3.2636  -48.4326 C   0  0  0  0  0  0  0  0  0  0  0  0
   -0.4635    2.2243  -47.8936 C   0  0  0  0  0  0  0  0  0  0  0  0
   -0.4335    0.9874  -48.5208 C   0  0  0  0  0  0  0  0  0  0  0  0
   -1.1473    0.7979  -49.7025 C   0  0  0  0  0  0  0  0  0  0  0  0
   -1.8981    1.8446  -50.2797 C   0  0  0  0  0  0  0  0  0  0  0  0
   -2.5644    1.5829  -51.6135 C   0  0  0  0  0  0  0  0  0  0  0  0
   -1.6359    1.0351  -52.6589 C   0  0  0  0  0  0  0  0  0  0  0  0
   -1.8026   -0.1355  -53.2904 C   0  0  0  0  0  0  0  0  0  0  0  0
  1 11  1  0  0  0  0
  2  1  1  1  0  0  0
  2  3  1  0  0  0  0
  2  5  1  0  0  0  0
  3  4  1  0  0  0  0
  6  5  1  0  0  0  0
  6  7  1  0  0  0  0
  8  9  1  0  0  0  0
  9  6  1  0  0  0  0
  9 10  1  0  0  0  0
 11 12  1  0  0  0  0
 12 13  1  0  0  0  0
 12 17  2  0  0  0  0
 13 14  2  0  0  0  0
 14 15  1  0  0  0  0
 15 16  2  0  0  0  0
 16 17  1  0  0  0  0
 17 18  1  0  0  0  0
 18 19  1  0  0  0  0
 19 20  2  0  0  0  0
M  END
>  <minimizedAffinity>
-8.28809

$$$$
