complex.gro
  PyMOL2.5          3D                             0

 21 24  0  0  0  0  0  0  0  0999 V2000
  -12.0501  205.1598  114.1697 C   0  0  0  0  0  0  0  0  0  0  0  0
  -10.8001  205.6897  113.9397 C   0  0  0  0  0  0  0  0  0  0  0  0
  -10.4601  206.3098  112.7197 C   0  0  0  0  0  0  0  0  0  0  0  0
  -11.4001  206.3898  111.6897 C   0  0  0  0  0  0  0  0  0  0  0  0
  -12.6701  205.8398  111.9497 C   0  0  0  0  0  0  0  0  0  0  0  0
  -13.0301  205.2198  113.1497 C   0  0  0  0  0  0  0  0  0  0  0  0
  -14.3401  204.7198  113.2397 C   0  0  0  0  0  0  0  0  0  0  0  0
  -15.1801  204.8598  112.1497 C   0  0  0  0  0  0  0  0  0  0  0  0
  -14.7801  205.4798  110.9697 C   0  0  0  0  0  0  0  0  0  0  0  0
  -13.5001  205.9898  110.8497 C   0  0  0  0  0  0  0  0  0  0  0  0
  -12.7601  206.6498  109.8697 N   0  0  0  0  0  0  0  0  0  0  0  0
  -11.5001  206.9098  110.3297 C   0  0  0  0  0  0  0  0  0  0  0  0
   -9.1001  206.8697  112.5297 C   0  0  0  0  0  0  0  0  0  0  0  0
   -8.2401  207.2497  113.5197 C   0  0  0  0  0  0  0  0  0  0  0  0
   -7.0801  207.7197  112.8997 C   0  0  0  0  0  0  0  0  0  0  0  0
   -7.2501  207.6097  111.5597 C   0  0  0  0  0  0  0  0  0  0  0  0
   -8.4801  207.0897  111.3297 N   0  0  0  0  0  0  0  0  0  0  0  0
  -10.6201  207.4698  109.7097 O   0  0  0  0  0  0  0  0  0  0  0  0
  -14.7701  204.1198  114.3697 F1  0  0  0  0  0  0  0  0  0  0  0  0
  -11.2701  204.4397  116.2897 C   0  0  0  0  0  0  0  0  0  0  0  0
  -12.3401  204.5797  115.3597 O   0  0  0  0  0  0  0  0  0  0  0  0
  1  2  1  0  0  0  0
  1  6  1  0  0  0  0
  1 21  1  0  0  0  0
  2  3  1  0  0  0  0
  3  4  1  0  0  0  0
  3 13  1  0  0  0  0
  4  5  1  0  0  0  0
  4 12  1  0  0  0  0
  5  6  1  0  0  0  0
  5 10  1  0  0  0  0
  6  7  1  0  0  0  0
  7  8  1  0  0  0  0
  7 19  1  0  0  0  0
  8  9  1  0  0  0  0
  9 10  1  0  0  0  0
 10 11  1  0  0  0  0
 11 12  1  0  0  0  0
 12 18  1  0  0  0  0
 13 14  1  0  0  0  0
 13 17  1  0  0  0  0
 14 15  1  0  0  0  0
 15 16  1  0  0  0  0
 16 17  1  0  0  0  0
 20 21  1  0  0  0  0
M  END
$$$$
