@<TRIPOS>MOLECULE
ZINC00003491
 21 24 0 0 0
SMALL
USER_CHARGES

@<TRIPOS>ATOM
      1 C1        -12.0500  205.1600  114.1700 C.2     1  UNK01       0.0000
      2 C2        -10.8000  205.6900  113.9400 C.2     1  UNK01       0.0000
      3 C3        -10.4600  206.3100  112.7200 C.2     1  UNK01       0.0000
      4 C4        -11.4000  206.3900  111.6900 C.2     1  UNK01       0.0000
      5 C5        -12.6700  205.8400  111.9500 C.2     1  UNK01       0.0000
      6 C6        -13.0300  205.2200  113.1500 C.2     1  UNK01       0.0000
      7 C7        -14.3400  204.7200  113.2400 C.2     1  UNK01       0.0000
      8 C8        -15.1800  204.8600  112.1500 C.2     1  UNK01       0.0000
      9 C9        -14.7800  205.4800  110.9700 C.2     1  UNK01       0.0000
     10 C10       -13.5000  205.9900  110.8500 C.2     1  UNK01       0.0000
     11 N1        -12.7600  206.6500  109.8700 N.am    1  UNK01       0.0000
     12 C11       -11.5000  206.9100  110.3300 C.2     1  UNK01       0.0000
     13 O1        -10.6200  207.4700  109.7100 O.2     1  UNK01       0.0000
     14 F1        -14.7700  204.1200  114.3700 F       1  UNK01       0.0000
     15 C12        -9.1000  206.8700  112.5300 C.2     1  UNK01       0.0000
     16 C13        -8.2400  207.2500  113.5200 C.2     1  UNK01       0.0000
     17 C14        -7.0800  207.7200  112.9000 C.2     1  UNK01       0.0000
     18 C15        -7.2500  207.6100  111.5600 C.2     1  UNK01       0.0000
     19 N2         -8.4800  207.0900  111.3300 N.pl3   1  UNK01       0.0000
     20 C16       -11.2700  204.4400  116.2900 C.3     1  UNK01       0.0000
     21 O2        -12.3400  204.5800  115.3600 O.2     1  UNK01       0.0000
@<TRIPOS>BOND
     1     1     2    2
     2     1     6    1
     3     1    21    1
     4     2     3    1
     5     3     4    2
     6     3    15    1
     7     4     5    1
     8     4    12    1
     9     5     6    2
    10     5    10    1
    11     6     7    1
    12     7     8    2
    13     7    14    1
    14     8     9    1
    15     9    10    2
    16    10    11    1
    17    11    12   am
    18    12    13    2
    19    15    16    2
    20    15    19    1
    21    16    17    1
    22    17    18    2
    23    18    19    1
    24    20    21    1
