# created with PyMOL 2.5.0
@<TRIPOS>MOLECULE
ZINC00003491
32 35 1                 
SMALL
USER_CHARGES
@<TRIPOS>ATOM
1	 H04	-13.100	206.900	108.960	 H	1	UNK0	0.000	
2	 H06	-6.190	208.100	113.400	 H	1	UNK0	0.000	
3	 H09	-10.440	205.090	115.990	 H	1	UNK0	0.000	
4	 H03	-15.480	205.570	110.140	 H	1	UNK0	0.000	
5	 H11	-10.920	203.400	116.300	 H	1	UNK0	0.000	
6	 H08	-8.880	206.900	110.420	 H	1	UNK0	0.000	
7	 H01	-10.050	205.630	114.720	 H	1	UNK0	0.000	
8	 H02	-16.190	204.470	112.220	 H	1	UNK0	0.000	
9	 H07	-6.520	207.890	110.800	 H	1	UNK0	0.000	
10	 H10	-11.610	204.720	117.290	 H	1	UNK0	0.000	
11	 H05	-8.430	207.200	114.590	 H	1	UNK0	0.000	
12	  C1	-12.050	205.160	114.170	C.2	1	UNK0	0.000	
13	  C2	-10.800	205.690	113.940	C.2	1	UNK0	0.000	
14	  C3	-10.460	206.310	112.720	C.2	1	UNK0	0.000	
15	  C4	-11.400	206.390	111.690	C.2	1	UNK0	0.000	
16	  C5	-12.670	205.840	111.950	C.2	1	UNK0	0.000	
17	  C6	-13.030	205.220	113.150	C.2	1	UNK0	0.000	
18	  C7	-14.340	204.720	113.240	C.2	1	UNK0	0.000	
19	  C8	-15.180	204.860	112.150	C.2	1	UNK0	0.000	
20	  C9	-14.780	205.480	110.970	C.2	1	UNK0	0.000	
21	 C10	-13.500	205.990	110.850	C.2	1	UNK0	0.000	
22	  N1	-12.760	206.650	109.870	N.pl3	1	UNK0	0.000	
23	 C11	-11.500	206.910	110.330	C.2	1	UNK0	0.000	
24	  O1	-10.620	207.470	109.710	O.2	1	UNK0	0.000	
25	  F1	-14.770	204.120	114.370	 F	1	UNK0	0.000	
26	 C12	-9.100	206.870	112.530	C.2	1	UNK0	0.000	
27	 C13	-8.240	207.250	113.520	C.2	1	UNK0	0.000	
28	 C14	-7.080	207.720	112.900	C.2	1	UNK0	0.000	
29	 C15	-7.250	207.610	111.560	C.2	1	UNK0	0.000	
30	  N2	-8.480	207.090	111.330	N.pl3	1	UNK0	0.000	
31	 C16	-11.270	204.440	116.290	C.3	1	UNK0	0.000	
32	  O2	-12.340	204.580	115.360	O.3	1	UNK0	0.000	
@<TRIPOS>BOND
1 12 13 2
2 12 17 1
3 12 32 1
4 7 13 1
5 13 14 1
6 14 15 2
7 14 26 1
8 15 16 1
9 15 23 1
10 16 17 2
11 16 21 1
12 17 18 1
13 18 19 2
14 18 25 1
15 8 19 1
16 19 20 1
17 4 20 1
18 20 21 2
19 21 22 1
20 1 22 1
21 22 23 1
22 23 24 2
23 26 27 2
24 26 30 1
25 11 27 1
26 27 28 1
27 2 28 1
28 28 29 2
29 9 29 1
30 29 30 1
31 6 30 1
32 3 31 1
33 5 31 1
34 10 31 1
35 31 32 1
@<TRIPOS>SUBSTRUCTURE
1	UNK0	1	GROUP	1 ****	UNK
