step2_200_2000_5.0_85412.xyz.gro
  PyMOL2.5          3D                             0

 21 24  0  0  0  0  0  0  0  0999 V2000
  -10.4551  207.4673  116.7423 C   0  0  0  0  0  0  0  0  0  0  0  0
   -9.4355  207.5871  115.7519 C   0  0  0  0  0  0  0  0  0  0  0  0
   -9.6163  207.2475  114.3919 C   0  0  0  0  0  0  0  0  0  0  0  0
  -10.8866  206.7782  114.0223 C   0  0  0  0  0  0  0  0  0  0  0  0
  -11.9262  206.6384  115.1227 C   0  0  0  0  0  0  0  0  0  0  0  0
  -11.7355  206.9580  116.4427 C   0  0  0  0  0  0  0  0  0  0  0  0
  -12.8753  206.7383  117.2632 C   0  0  0  0  0  0  0  0  0  0  0  0
  -14.0957  206.2090  116.7636 C   0  0  0  0  0  0  0  0  0  0  0  0
  -14.2865  205.8694  115.4036 C   0  0  0  0  0  0  0  0  0  0  0  0
  -13.2167  206.0891  114.5532 C   0  0  0  0  0  0  0  0  0  0  0  0
  -13.0275  205.8594  113.0130 N   0  0  0  0  0  0  0  0  0  0  0  0
  -11.6075  206.2588  112.6025 C   0  0  0  0  0  0  0  0  0  0  0  0
   -8.5266  207.4772  113.4615 C   0  0  0  0  0  0  0  0  0  0  0  0
   -8.5069  207.9475  112.0516 C   0  0  0  0  0  0  0  0  0  0  0  0
   -6.9570  208.2469  111.6610 C   0  0  0  0  0  0  0  0  0  0  0  0
   -6.1366  207.9162  112.8505 C   0  0  0  0  0  0  0  0  0  0  0  0
   -7.0864  207.4464  113.9208 N   0  0  0  0  0  0  0  0  0  0  0  0
  -11.1280  206.2089  111.4823 O   0  0  0  0  0  0  0  0  0  0  0  0
  -12.8345  207.0280  118.5732 F1  0  0  0  0  0  0  0  0  0  0  0  0
   -9.5838  209.1366  118.1023 C   0  0  0  0  0  0  0  0  0  0  0  0
  -10.1744  207.8268  118.0523 O   0  0  0  0  0  0  0  0  0  0  0  0
  1  2  1  0  0  0  0
  1  6  1  0  0  0  0
  1 21  1  0  0  0  0
  2  3  1  0  0  0  0
  3  4  1  0  0  0  0
  3 13  1  0  0  0  0
  4  5  1  0  0  0  0
  4 12  1  0  0  0  0
  5  6  1  0  0  0  0
  5 10  1  0  0  0  0
  6  7  1  0  0  0  0
  7  8  1  0  0  0  0
  7 19  1  0  0  0  0
  8  9  1  0  0  0  0
  9 10  1  0  0  0  0
 10 11  1  0  0  0  0
 11 12  1  0  0  0  0
 12 18  1  0  0  0  0
 13 14  1  0  0  0  0
 13 17  1  0  0  0  0
 14 15  1  0  0  0  0
 15 16  1  0  0  0  0
 16 17  1  0  0  0  0
 20 21  1  0  0  0  0
M  END
$$$$
