@<TRIPOS>MOLECULE
ZINC00003491
 21 24 0 0 0
SMALL
USER_CHARGES

@<TRIPOS>ATOM
      1 C1        -12.2500  205.0400  114.2200 C.2     1  UNK01       0.0000
      2 C2        -10.9600  205.6000  113.9500 C.2     1  UNK01       0.0000
      3 C3        -10.5900  206.2500  112.7600 C.2     1  UNK01       0.0000
      4 C4        -11.5500  206.2700  111.7600 C.2     1  UNK01       0.0000
      5 C5        -12.9100  205.6700  112.0600 C.2     1  UNK01       0.0000
      6 C6        -13.2800  205.0700  113.2500 C.2     1  UNK01       0.0000
      7 C7        -14.6200  204.6000  113.2600 C.2     1  UNK01       0.0000
      8 C8        -15.5100  204.7700  112.1700 C.2     1  UNK01       0.0000
      9 C9        -15.1400  205.4100  110.9700 C.2     1  UNK01       0.0000
     10 C10       -13.8400  205.8500  110.8900 C.2     1  UNK01       0.0000
     11 N1        -13.0800  206.6500  109.7900 N.am    1  UNK01       0.0000
     12 C11       -11.6400  206.9000  110.2300 C.2     1  UNK01       0.0000
     13 O1        -10.7400  207.3900  109.5800 O.2     1  UNK01       0.0000
     14 F1        -15.1100  203.9300  114.3300 F       1  UNK01       0.0000
     15 C12        -9.2700  206.8400  112.6600 C.2     1  UNK01       0.0000
     16 C13        -8.2200  206.9400  113.7000 C.2     1  UNK01       0.0000
     17 C14        -6.9100  207.5400  113.0100 C.2     1  UNK01       0.0000
     18 C15        -7.2400  207.7800  111.5800 C.2     1  UNK01       0.0000
     19 N2         -8.6800  207.3900  111.3900 N.pl3   1  UNK01       0.0000
     20 C16       -11.5000  204.2500  116.3600 C.3     1  UNK01       0.0000
     21 O2        -12.5900  204.5100  115.4700 O.2     1  UNK01       0.0000
@<TRIPOS>BOND
     1     1     2    2
     2     1     6    1
     3     1    21    1
     4     2     3    1
     5     3     4    2
     6     3    15    1
     7     4     5    1
     8     4    12    1
     9     5     6    2
    10     5    10    1
    11     6     7    1
    12     7     8    2
    13     7    14    1
    14     8     9    1
    15     9    10    2
    16    10    11    1
    17    11    12   am
    18    12    13    2
    19    15    16    2
    20    15    19    1
    21    16    17    1
    22    17    18    2
    23    18    19    1
    24    20    21    1
