@<TRIPOS>MOLECULE
ZINC00003491
 21 24 0 0 0
SMALL
USER_CHARGES

@<TRIPOS>ATOM
      1 C1        -11.5800  206.4300  115.7700 C.2     1  UNK01       0.0000
      2 C2        -10.1900  206.5000  116.0600 C.2     1  UNK01       0.0000
      3 C3         -9.1900  206.5800  115.0600 C.2     1  UNK01       0.0000
      4 C4         -9.6400  206.5700  113.7300 C.2     1  UNK01       0.0000
      5 C5        -11.1300  206.5200  113.4800 C.2     1  UNK01       0.0000
      6 C6        -12.1000  206.4500  114.4600 C.2     1  UNK01       0.0000
      7 C7        -13.4200  206.4000  113.9600 C.2     1  UNK01       0.0000
      8 C8        -13.7200  206.4000  112.5700 C.2     1  UNK01       0.0000
      9 C9        -12.7300  206.4500  111.5600 C.2     1  UNK01       0.0000
     10 C10       -11.4100  206.5000  112.0000 C.2     1  UNK01       0.0000
     11 N1        -10.0400  206.5300  111.2300 N.am    1  UNK01       0.0000
     12 C11        -8.8900  206.5800  112.2400 C.2     1  UNK01       0.0000
     13 O1         -7.6800  206.6200  112.0300 O.2     1  UNK01       0.0000
     14 F1        -14.4600  206.3400  114.8100 F       1  UNK01       0.0000
     15 C12        -7.7900  206.6300  115.4300 C.2     1  UNK01       0.0000
     16 C13        -7.1300  206.5400  116.7700 C.2     1  UNK01       0.0000
     17 C14        -5.5300  206.5700  116.5400 C.2     1  UNK01       0.0000
     18 C15        -5.3100  206.6700  115.0700 C.2     1  UNK01       0.0000
     19 N2         -6.6700  206.7000  114.4200 N.pl3   1  UNK01       0.0000
     20 C16       -12.4200  204.9400  117.2500 C.3     1  UNK01       0.0000
     21 O2        -12.4400  206.3200  116.8500 O.2     1  UNK01       0.0000
@<TRIPOS>BOND
     1     1     2    2
     2     1     6    1
     3     1    21    1
     4     2     3    1
     5     3     4    2
     6     3    15    1
     7     4     5    1
     8     4    12    1
     9     5     6    2
    10     5    10    1
    11     6     7    1
    12     7     8    2
    13     7    14    1
    14     8     9    1
    15     9    10    2
    16    10    11    1
    17    11    12   am
    18    12    13    2
    19    15    16    2
    20    15    19    1
    21    16    17    1
    22    17    18    2
    23    18    19    1
    24    20    21    1
