# created with PyMOL 2.5.0
@<TRIPOS>MOLECULE
ZINC00003491
32 35 1                 
SMALL
USER_CHARGES
@<TRIPOS>ATOM
1	 H04	-10.970	209.000	113.080	 H	1	UNK0	0.000	
2	 H06	-4.730	207.820	118.910	 H	1	UNK0	0.000	
3	 H09	-12.130	204.780	121.060	 H	1	UNK0	0.000	
4	 H03	-13.670	207.540	113.360	 H	1	UNK0	0.000	
5	 H11	-11.230	206.300	120.940	 H	1	UNK0	0.000	
6	 H08	-7.720	209.590	116.210	 H	1	UNK0	0.000	
7	 H01	-9.700	206.770	119.430	 H	1	UNK0	0.000	
8	 H02	-14.990	206.190	115.030	 H	1	UNK0	0.000	
9	 H07	-5.160	209.740	116.860	 H	1	UNK0	0.000	
10	 H10	-10.600	204.810	120.150	 H	1	UNK0	0.000	
11	 H05	-7.310	206.570	119.390	 H	1	UNK0	0.000	
12	  C1	-11.560	206.460	118.280	C.2	1	UNK0	0.000	
13	  C2	-10.220	206.950	118.500	C.2	1	UNK0	0.000	
14	  C3	-9.490	207.700	117.540	C.2	1	UNK0	0.000	
15	  C4	-10.150	208.000	116.350	C.2	1	UNK0	0.000	
16	  C5	-11.550	207.450	116.140	C.2	1	UNK0	0.000	
17	  C6	-12.240	206.700	117.060	C.2	1	UNK0	0.000	
18	  C7	-13.520	206.270	116.590	C.2	1	UNK0	0.000	
19	  C8	-14.010	206.580	115.300	C.2	1	UNK0	0.000	
20	  C9	-13.290	207.340	114.350	C.2	1	UNK0	0.000	
21	 C10	-12.040	207.790	114.750	C.2	1	UNK0	0.000	
22	  N1	-10.920	208.600	114.010	N.pl3	1	UNK0	0.000	
23	 C11	-9.720	208.790	114.940	C.2	1	UNK0	0.000	
24	  O1	-8.670	209.370	114.730	O.2	1	UNK0	0.000	
25	  F1	-14.300	205.500	117.370	 F	1	UNK0	0.000	
26	 C12	-8.080	207.990	117.750	C.2	1	UNK0	0.000	
27	 C13	-7.100	207.370	118.690	C.2	1	UNK0	0.000	
28	 C14	-5.670	208.060	118.420	C.2	1	UNK0	0.000	
29	 C15	-5.850	209.060	117.340	C.2	1	UNK0	0.000	
30	  N2	-7.300	209.010	116.950	N.pl3	1	UNK0	0.000	
31	 C16	-11.500	205.390	120.410	C.3	1	UNK0	0.000	
32	  O2	-12.240	205.690	119.220	O.3	1	UNK0	0.000	
@<TRIPOS>BOND
1 12 13 2
2 12 17 1
3 12 32 1
4 7 13 1
5 13 14 1
6 14 15 2
7 14 26 1
8 15 16 1
9 15 23 1
10 16 17 2
11 16 21 1
12 17 18 1
13 18 19 2
14 18 25 1
15 8 19 1
16 19 20 1
17 4 20 1
18 20 21 2
19 21 22 1
20 1 22 1
21 22 23 1
22 23 24 2
23 26 27 2
24 26 30 1
25 11 27 1
26 27 28 1
27 2 28 1
28 28 29 2
29 9 29 1
30 29 30 1
31 6 30 1
32 3 31 1
33 5 31 1
34 10 31 1
35 31 32 1
@<TRIPOS>SUBSTRUCTURE
1	UNK0	1	GROUP	1 ****	UNK
