step2_200_2000_5.0_41842.xyz.gro
  PyMOL2.5          3D                             0

 21 24  0  0  0  0  0  0  0  0999 V2000
   -9.9143  207.7205  115.7171 C   0  0  0  0  0  0  0  0  0  0  0  0
   -8.4943  207.6199  115.6963 C   0  0  0  0  0  0  0  0  0  0  0  0
   -7.7449  207.5005  114.4959 C   0  0  0  0  0  0  0  0  0  0  0  0
   -8.4655  207.5217  113.3062 C   0  0  0  0  0  0  0  0  0  0  0  0
   -9.9754  207.6523  113.3871 C   0  0  0  0  0  0  0  0  0  0  0  0
  -10.7048  207.7417  114.5475 C   0  0  0  0  0  0  0  0  0  0  0  0
  -12.1049  207.8624  114.3582 C   0  0  0  0  0  0  0  0  0  0  0  0
  -12.7055  207.8736  113.0685 C   0  0  0  0  0  0  0  0  0  0  0  0
  -11.9561  207.7942  111.8681 C   0  0  0  0  0  0  0  0  0  0  0  0
  -10.5861  207.6736  111.9974 C   0  0  0  0  0  0  0  0  0  0  0  0
   -9.4266  207.5239  110.9467 N   0  0  0  0  0  0  0  0  0  0  0  0
   -8.0763  207.4228  111.6760 C   0  0  0  0  0  0  0  0  0  0  0  0
   -6.3150  207.2899  114.5550 C   0  0  0  0  0  0  0  0  0  0  0  0
   -5.3745  207.2387  115.7245 C   0  0  0  0  0  0  0  0  0  0  0  0
   -3.9049  206.8985  115.1536 C   0  0  0  0  0  0  0  0  0  0  0  0
   -4.0256  206.7397  113.6735 C   0  0  0  0  0  0  0  0  0  0  0  0
   -5.4757  206.9905  113.3344 N   0  0  0  0  0  0  0  0  0  0  0  0
   -6.9766  207.1927  111.2053 O   0  0  0  0  0  0  0  0  0  0  0  0
  -12.9343  208.0019  115.3988 F1  0  0  0  0  0  0  0  0  0  0  0  0
  -10.9839  206.5696  117.3567 C   0  0  0  0  0  0  0  0  0  0  0  0
  -10.4736  207.8497  116.9775 O   0  0  0  0  0  0  0  0  0  0  0  0
  1  2  1  0  0  0  0
  1  6  1  0  0  0  0
  1 21  1  0  0  0  0
  2  3  1  0  0  0  0
  3  4  1  0  0  0  0
  3 13  1  0  0  0  0
  4  5  1  0  0  0  0
  4 12  1  0  0  0  0
  5  6  1  0  0  0  0
  5 10  1  0  0  0  0
  6  7  1  0  0  0  0
  7  8  1  0  0  0  0
  7 19  1  0  0  0  0
  8  9  1  0  0  0  0
  9 10  1  0  0  0  0
 10 11  1  0  0  0  0
 11 12  1  0  0  0  0
 12 18  1  0  0  0  0
 13 14  1  0  0  0  0
 13 17  1  0  0  0  0
 14 15  1  0  0  0  0
 15 16  1  0  0  0  0
 16 17  1  0  0  0  0
 20 21  1  0  0  0  0
M  END
$$$$
