# created with PyMOL 2.5.0
@<TRIPOS>MOLECULE
ZINC00003491
32 35 1                 
SMALL
USER_CHARGES
@<TRIPOS>ATOM
1	 H04	-9.970	208.360	111.180	 H	1	UNK0	0.000	
2	 H06	-1.830	209.030	114.300	 H	1	UNK0	0.000	
3	 H09	-9.580	207.850	118.240	 H	1	UNK0	0.000	
4	 H03	-12.160	206.980	112.820	 H	1	UNK0	0.000	
5	 H11	-7.860	208.290	118.520	 H	1	UNK0	0.000	
6	 H08	-5.770	209.450	112.410	 H	1	UNK0	0.000	
7	 H01	-6.040	207.370	116.740	 H	1	UNK0	0.000	
8	 H02	-12.540	205.900	115.050	 H	1	UNK0	0.000	
9	 H07	-3.240	210.090	112.060	 H	1	UNK0	0.000	
10	 H10	-8.680	207.150	119.590	 H	1	UNK0	0.000	
11	 H05	-3.840	207.740	115.970	 H	1	UNK0	0.000	
12	  C1	-8.120	206.860	116.460	C.2	1	UNK0	0.000	
13	  C2	-6.870	207.400	116.040	C.2	1	UNK0	0.000	
14	  C3	-6.660	207.990	114.770	C.2	1	UNK0	0.000	
15	  C4	-7.780	208.060	113.930	C.2	1	UNK0	0.000	
16	  C5	-9.070	207.420	114.400	C.2	1	UNK0	0.000	
17	  C6	-9.260	206.820	115.620	C.2	1	UNK0	0.000	
18	  C7	-10.550	206.260	115.810	C.2	1	UNK0	0.000	
19	  C8	-11.570	206.330	114.820	C.2	1	UNK0	0.000	
20	  C9	-11.370	206.940	113.560	C.2	1	UNK0	0.000	
21	 C10	-10.120	207.490	113.310	C.2	1	UNK0	0.000	
22	  N1	-9.500	208.220	112.070	N.pl3	1	UNK0	0.000	
23	 C11	-8.060	208.630	112.380	C.2	1	UNK0	0.000	
24	  O1	-7.300	209.300	111.700	O.2	1	UNK0	0.000	
25	  F1	-10.830	205.610	116.950	 F	1	UNK0	0.000	
26	 C12	-5.330	208.420	114.350	C.2	1	UNK0	0.000	
27	 C13	-4.010	208.250	115.030	C.2	1	UNK0	0.000	
28	 C14	-2.890	208.960	114.110	C.2	1	UNK0	0.000	
29	 C15	-3.590	209.530	112.920	C.2	1	UNK0	0.000	
30	  N2	-5.050	209.190	113.080	N.pl3	1	UNK0	0.000	
31	 C16	-8.600	207.480	118.560	C.3	1	UNK0	0.000	
32	  O2	-8.170	206.380	117.750	O.3	1	UNK0	0.000	
@<TRIPOS>BOND
1 12 13 2
2 12 17 1
3 12 32 1
4 7 13 1
5 13 14 1
6 14 15 2
7 14 26 1
8 15 16 1
9 15 23 1
10 16 17 2
11 16 21 1
12 17 18 1
13 18 19 2
14 18 25 1
15 8 19 1
16 19 20 1
17 4 20 1
18 20 21 2
19 21 22 1
20 1 22 1
21 22 23 1
22 23 24 2
23 26 27 2
24 26 30 1
25 11 27 1
26 27 28 1
27 2 28 1
28 28 29 2
29 9 29 1
30 29 30 1
31 6 30 1
32 3 31 1
33 5 31 1
34 10 31 1
35 31 32 1
@<TRIPOS>SUBSTRUCTURE
1	UNK0	1	GROUP	1 ****	UNK
