# created with PyMOL 2.5.0
@<TRIPOS>MOLECULE
ZINC00003491
32 35 1                 
SMALL
USER_CHARGES
@<TRIPOS>ATOM
1	 H04	-11.450	206.940	110.980	 H	1	UNK0	0.000	
2	 H06	-5.600	208.580	117.190	 H	1	UNK0	0.000	
3	 H09	-12.990	205.900	118.440	 H	1	UNK0	0.000	
4	 H03	-13.490	204.730	111.410	 H	1	UNK0	0.000	
5	 H11	-13.410	204.260	118.980	 H	1	UNK0	0.000	
6	 H08	-8.490	208.590	113.880	 H	1	UNK0	0.000	
7	 H01	-10.050	206.090	117.670	 H	1	UNK0	0.000	
8	 H02	-14.330	203.160	113.200	 H	1	UNK0	0.000	
9	 H07	-6.100	209.500	114.550	 H	1	UNK0	0.000	
10	 H10	-13.930	204.800	117.380	 H	1	UNK0	0.000	
11	 H05	-7.970	207.070	117.970	 H	1	UNK0	0.000	
12	  C1	-11.560	205.120	116.490	C.2	1	UNK0	0.000	
13	  C2	-10.500	206.040	116.680	C.2	1	UNK0	0.000	
14	  C3	-9.990	206.880	115.660	C.2	1	UNK0	0.000	
15	  C4	-10.650	206.820	114.430	C.2	1	UNK0	0.000	
16	  C5	-11.760	205.800	114.260	C.2	1	UNK0	0.000	
17	  C6	-12.200	204.930	115.240	C.2	1	UNK0	0.000	
18	  C7	-13.140	203.980	114.790	C.2	1	UNK0	0.000	
19	  C8	-13.610	203.930	113.450	C.2	1	UNK0	0.000	
20	  C9	-13.160	204.810	112.440	C.2	1	UNK0	0.000	
21	 C10	-12.230	205.750	112.810	C.2	1	UNK0	0.000	
22	  N1	-11.380	206.800	112.000	N.pl3	1	UNK0	0.000	
23	 C11	-10.400	207.500	112.930	C.2	1	UNK0	0.000	
24	  O1	-9.500	208.280	112.650	O.2	1	UNK0	0.000	
25	  F1	-13.540	202.990	115.620	 F	1	UNK0	0.000	
26	 C12	-8.760	207.610	115.880	C.2	1	UNK0	0.000	
27	 C13	-7.810	207.580	117.030	C.2	1	UNK0	0.000	
28	 C14	-6.500	208.420	116.600	C.2	1	UNK0	0.000	
29	 C15	-6.720	208.920	115.220	C.2	1	UNK0	0.000	
30	  N2	-8.080	208.430	114.800	N.pl3	1	UNK0	0.000	
31	 C16	-13.120	204.860	118.120	C.3	1	UNK0	0.000	
32	  O2	-11.890	204.340	117.600	O.3	1	UNK0	0.000	
@<TRIPOS>BOND
1 12 13 2
2 12 17 1
3 12 32 1
4 7 13 1
5 13 14 1
6 14 15 2
7 14 26 1
8 15 16 1
9 15 23 1
10 16 17 2
11 16 21 1
12 17 18 1
13 18 19 2
14 18 25 1
15 8 19 1
16 19 20 1
17 4 20 1
18 20 21 2
19 21 22 1
20 1 22 1
21 22 23 1
22 23 24 2
23 26 27 2
24 26 30 1
25 11 27 1
26 27 28 1
27 2 28 1
28 28 29 2
29 9 29 1
30 29 30 1
31 6 30 1
32 3 31 1
33 5 31 1
34 10 31 1
35 31 32 1
@<TRIPOS>SUBSTRUCTURE
1	UNK0	1	GROUP	1 ****	UNK
