step2_200_2000_5.0_16930.xyz.gro
  PyMOL2.5          3D                             0

 21 24  0  0  0  0  0  0  0  0999 V2000
   -8.5610  206.5438  116.5041 C   0  0  0  0  0  0  0  0  0  0  0  0
   -7.1511  206.6134  116.3038 C   0  0  0  0  0  0  0  0  0  0  0  0
   -6.5513  206.8236  115.0338 C   0  0  0  0  0  0  0  0  0  0  0  0
   -7.4215  206.9942  113.9540 C   0  0  0  0  0  0  0  0  0  0  0  0
   -8.9115  206.8546  114.2143 C   0  0  0  0  0  0  0  0  0  0  0  0
   -9.4913  206.6044  115.4344 C   0  0  0  0  0  0  0  0  0  0  0  0
  -10.9013  206.4049  115.3946 C   0  0  0  0  0  0  0  0  0  0  0  0
  -11.6416  206.4755  114.1848 C   0  0  0  0  0  0  0  0  0  0  0  0
  -11.0518  206.7256  112.9248 C   0  0  0  0  0  0  0  0  0  0  0  0
   -9.6817  206.9252  112.9145 C   0  0  0  0  0  0  0  0  0  0  0  0
   -8.6619  207.1452  111.7443 N   0  0  0  0  0  0  0  0  0  0  0  0
   -7.2318  207.1846  112.3040 C   0  0  0  0  0  0  0  0  0  0  0  0
   -5.1113  206.7932  114.8934 C   0  0  0  0  0  0  0  0  0  0  0  0
   -4.0814  206.1126  115.7130 C   0  0  0  0  0  0  0  0  0  0  0  0
   -2.6314  206.5223  115.1228 C   0  0  0  0  0  0  0  0  0  0  0  0
   -2.8713  207.4227  113.9631 C   0  0  0  0  0  0  0  0  0  0  0  0
   -4.3613  207.5832  113.8435 N   0  0  0  0  0  0  0  0  0  0  0  0
   -6.1819  207.2444  111.6938 O   0  0  0  0  0  0  0  0  0  0  0  0
  -11.5712  206.0848  116.5047 F1  0  0  0  0  0  0  0  0  0  0  0  0
   -9.5203  207.6337  118.2347 C   0  0  0  0  0  0  0  0  0  0  0  0
   -8.9708  206.3736  117.8142 O   0  0  0  0  0  0  0  0  0  0  0  0
  1  2  1  0  0  0  0
  1  6  1  0  0  0  0
  1 21  1  0  0  0  0
  2  3  1  0  0  0  0
  3  4  1  0  0  0  0
  3 13  1  0  0  0  0
  4  5  1  0  0  0  0
  4 12  1  0  0  0  0
  5  6  1  0  0  0  0
  5 10  1  0  0  0  0
  6  7  1  0  0  0  0
  7  8  1  0  0  0  0
  7 19  1  0  0  0  0
  8  9  1  0  0  0  0
  9 10  1  0  0  0  0
 10 11  1  0  0  0  0
 11 12  1  0  0  0  0
 12 18  1  0  0  0  0
 13 14  1  0  0  0  0
 13 17  1  0  0  0  0
 14 15  1  0  0  0  0
 15 16  1  0  0  0  0
 16 17  1  0  0  0  0
 20 21  1  0  0  0  0
M  END
$$$$
