# created with PyMOL 2.5.0
@<TRIPOS>MOLECULE
ZINC00003491
32 35 1                 
SMALL
USER_CHARGES
@<TRIPOS>ATOM
1	 H04	-10.710	205.730	109.860	 H	1	UNK0	0.000	
2	 H06	-4.150	207.220	115.490	 H	1	UNK0	0.000	
3	 H09	-13.030	208.160	116.310	 H	1	UNK0	0.000	
4	 H03	-13.570	205.310	110.920	 H	1	UNK0	0.000	
5	 H11	-11.460	208.770	116.920	 H	1	UNK0	0.000	
6	 H08	-7.050	207.160	112.160	 H	1	UNK0	0.000	
7	 H01	-9.170	207.060	116.440	 H	1	UNK0	0.000	
8	 H02	-14.900	205.400	113.060	 H	1	UNK0	0.000	
9	 H07	-4.450	207.400	112.660	 H	1	UNK0	0.000	
10	 H10	-12.640	208.040	118.030	 H	1	UNK0	0.000	
11	 H05	-6.830	206.860	116.540	 H	1	UNK0	0.000	
12	  C1	-11.100	206.670	115.570	C.2	1	UNK0	0.000	
13	  C2	-9.690	206.860	115.510	C.2	1	UNK0	0.000	
14	  C3	-8.950	206.790	114.310	C.2	1	UNK0	0.000	
15	  C4	-9.670	206.530	113.140	C.2	1	UNK0	0.000	
16	  C5	-11.170	206.290	113.270	C.2	1	UNK0	0.000	
17	  C6	-11.880	206.350	114.440	C.2	1	UNK0	0.000	
18	  C7	-13.250	206.020	114.300	C.2	1	UNK0	0.000	
19	  C8	-13.840	205.660	113.060	C.2	1	UNK0	0.000	
20	  C9	-13.100	205.600	111.850	C.2	1	UNK0	0.000	
21	 C10	-11.760	205.910	111.920	C.2	1	UNK0	0.000	
22	  N1	-10.600	205.920	110.850	N.pl3	1	UNK0	0.000	
23	 C11	-9.280	206.290	111.540	C.2	1	UNK0	0.000	
24	  O1	-8.160	206.340	111.050	O.2	1	UNK0	0.000	
25	  F1	-14.050	205.990	115.390	 F	1	UNK0	0.000	
26	 C12	-7.510	206.940	114.340	C.2	1	UNK0	0.000	
27	 C13	-6.560	206.960	115.500	C.2	1	UNK0	0.000	
28	 C14	-5.080	207.170	114.910	C.2	1	UNK0	0.000	
29	 C15	-5.190	207.260	113.430	C.2	1	UNK0	0.000	
30	  N2	-6.650	207.110	113.110	N.pl3	1	UNK0	0.000	
31	 C16	-12.220	207.990	117.020	C.3	1	UNK0	0.000	
32	  O2	-11.650	206.690	116.840	O.3	1	UNK0	0.000	
@<TRIPOS>BOND
1 12 13 2
2 12 17 1
3 12 32 1
4 7 13 1
5 13 14 1
6 14 15 2
7 14 26 1
8 15 16 1
9 15 23 1
10 16 17 2
11 16 21 1
12 17 18 1
13 18 19 2
14 18 25 1
15 8 19 1
16 19 20 1
17 4 20 1
18 20 21 2
19 21 22 1
20 1 22 1
21 22 23 1
22 23 24 2
23 26 27 2
24 26 30 1
25 11 27 1
26 27 28 1
27 2 28 1
28 28 29 2
29 9 29 1
30 29 30 1
31 6 30 1
32 3 31 1
33 5 31 1
34 10 31 1
35 31 32 1
@<TRIPOS>SUBSTRUCTURE
1	UNK0	1	GROUP	1 ****	UNK
