@<TRIPOS>MOLECULE
ZINC00003491
 21 24 0 0 0
SMALL
USER_CHARGES

@<TRIPOS>ATOM
      1 C1        -10.6700  205.8100  114.3300 C.2     1  UNK01       0.0000
      2 C2         -9.3700  206.1800  113.9000 C.2     1  UNK01       0.0000
      3 C3         -9.0400  206.5400  112.5700 C.2     1  UNK01       0.0000
      4 C4        -10.1000  206.5500  111.6600 C.2     1  UNK01       0.0000
      5 C5        -11.4800  206.1500  112.1600 C.2     1  UNK01       0.0000
      6 C6        -11.7700  205.7700  113.4400 C.2     1  UNK01       0.0000
      7 C7        -13.1300  205.4100  113.6500 C.2     1  UNK01       0.0000
      8 C8        -14.1000  205.4400  112.6100 C.2     1  UNK01       0.0000
      9 C9        -13.7900  205.8200  111.2800 C.2     1  UNK01       0.0000
     10 C10       -12.4800  206.1800  111.0200 C.2     1  UNK01       0.0000
     11 N1        -11.7300  206.6200  109.7100 N.am    1  UNK01       0.0000
     12 C11       -10.2400  206.8600  110.0300 C.2     1  UNK01       0.0000
     13 O1         -9.3500  207.1600  109.2600 O.2     1  UNK01       0.0000
     14 F1        -13.5400  205.0000  114.8600 F       1  UNK01       0.0000
     15 C12        -7.6600  206.8300  112.2400 C.2     1  UNK01       0.0000
     16 C13        -6.4200  206.7300  113.0700 C.2     1  UNK01       0.0000
     17 C14        -5.1900  207.2800  112.1900 C.2     1  UNK01       0.0000
     18 C15        -5.7300  207.6600  110.8600 C.2     1  UNK01       0.0000
     19 N2         -7.2200  207.4000  110.9000 N.pl3   1  UNK01       0.0000
     20 C16       -10.4100  206.3400  116.5600 C.3     1  UNK01       0.0000
     21 O2        -10.8400  205.3400  115.6300 O.2     1  UNK01       0.0000
@<TRIPOS>BOND
     1     1     2    2
     2     1     6    1
     3     1    21    1
     4     2     3    1
     5     3     4    2
     6     3    15    1
     7     4     5    1
     8     4    12    1
     9     5     6    2
    10     5    10    1
    11     6     7    1
    12     7     8    2
    13     7    14    1
    14     8     9    1
    15     9    10    2
    16    10    11    1
    17    11    12   am
    18    12    13    2
    19    15    16    2
    20    15    19    1
    21    16    17    1
    22    17    18    2
    23    18    19    1
    24    20    21    1
