@<TRIPOS>MOLECULE
ZINC00003491
 21 24 0 0 0
SMALL
USER_CHARGES

@<TRIPOS>ATOM
      1 C1        -11.2300  206.0400  114.9600 C.2     1  UNK01       0.0000
      2 C2         -9.9100  206.5000  114.7200 C.2     1  UNK01       0.0000
      3 C3         -9.4200  206.8600  113.4400 C.2     1  UNK01       0.0000
      4 C4        -10.3100  206.7200  112.3800 C.2     1  UNK01       0.0000
      5 C5        -11.7100  206.2000  112.6800 C.2     1  UNK01       0.0000
      6 C6        -12.1800  205.8600  113.9300 C.2     1  UNK01       0.0000
      7 C7        -13.5200  205.4000  113.9400 C.2     1  UNK01       0.0000
      8 C8        -14.3200  205.3300  112.7700 C.2     1  UNK01       0.0000
      9 C9        -13.8400  205.6800  111.4900 C.2     1  UNK01       0.0000
     10 C10       -12.5200  206.1100  111.4100 C.2     1  UNK01       0.0000
     11 N1        -11.6200  206.5600  110.2100 N.am    1  UNK01       0.0000
     12 C11       -10.2400  206.9600  110.7300 C.2     1  UNK01       0.0000
     13 O1         -9.2700  207.3600  110.0900 O.2     1  UNK01       0.0000
     14 F1        -14.0700  204.9700  115.0900 F       1  UNK01       0.0000
     15 C12        -8.0400  207.3000  113.2900 C.2     1  UNK01       0.0000
     16 C13        -6.9400  207.3200  114.3000 C.2     1  UNK01       0.0000
     17 C14        -5.6400  207.9700  113.5900 C.2     1  UNK01       0.0000
     18 C15        -6.0200  208.3000  112.1900 C.2     1  UNK01       0.0000
     19 N2         -7.4600  207.9000  112.0200 N.pl3   1  UNK01       0.0000
     20 C16       -12.2300  206.8500  116.8200 C.3     1  UNK01       0.0000
     21 O2        -11.5400  205.7200  116.2700 O.2     1  UNK01       0.0000
@<TRIPOS>BOND
     1     1     2    2
     2     1     6    1
     3     1    21    1
     4     2     3    1
     5     3     4    2
     6     3    15    1
     7     4     5    1
     8     4    12    1
     9     5     6    2
    10     5    10    1
    11     6     7    1
    12     7     8    2
    13     7    14    1
    14     8     9    1
    15     9    10    2
    16    10    11    1
    17    11    12   am
    18    12    13    2
    19    15    16    2
    20    15    19    1
    21    16    17    1
    22    17    18    2
    23    18    19    1
    24    20    21    1
