# created with PyMOL 2.5.0
@<TRIPOS>MOLECULE
ZINC00003491
32 35 1                 
SMALL
USER_CHARGES
@<TRIPOS>ATOM
1	 H04	-11.750	206.810	109.090	 H	1	UNK0	0.000	
2	 H06	-4.430	208.330	113.730	 H	1	UNK0	0.000	
3	 H09	-10.850	207.770	116.830	 H	1	UNK0	0.000	
4	 H03	-14.350	206.030	110.550	 H	1	UNK0	0.000	
5	 H11	-9.710	206.450	117.250	 H	1	UNK0	0.000	
6	 H08	-7.810	208.210	110.930	 H	1	UNK0	0.000	
7	 H01	-8.890	206.610	115.330	 H	1	UNK0	0.000	
8	 H02	-15.210	205.500	112.860	 H	1	UNK0	0.000	
9	 H07	-5.320	209.000	111.110	 H	1	UNK0	0.000	
10	 H10	-11.290	206.550	118.050	 H	1	UNK0	0.000	
11	 H05	-6.690	207.080	115.050	 H	1	UNK0	0.000	
12	  C1	-10.980	206.270	114.820	C.2	1	UNK0	0.000	
13	  C2	-9.630	206.640	114.540	C.2	1	UNK0	0.000	
14	  C3	-9.170	207.000	113.240	C.2	1	UNK0	0.000	
15	  C4	-10.110	206.950	112.220	C.2	1	UNK0	0.000	
16	  C5	-11.530	206.530	112.560	C.2	1	UNK0	0.000	
17	  C6	-11.970	206.200	113.820	C.2	1	UNK0	0.000	
18	  C7	-13.340	205.850	113.870	C.2	1	UNK0	0.000	
19	  C8	-14.180	205.790	112.720	C.2	1	UNK0	0.000	
20	  C9	-13.710	206.090	111.420	C.2	1	UNK0	0.000	
21	 C10	-12.390	206.460	111.310	C.2	1	UNK0	0.000	
22	  N1	-11.480	206.830	110.070	N.pl3	1	UNK0	0.000	
23	 C11	-10.060	207.140	110.560	C.2	1	UNK0	0.000	
24	  O1	-9.070	207.390	109.900	O.2	1	UNK0	0.000	
25	  F1	-13.910	205.560	115.050	 F	1	UNK0	0.000	
26	 C12	-7.790	207.420	113.060	C.2	1	UNK0	0.000	
27	 C13	-6.660	207.440	114.030	C.2	1	UNK0	0.000	
28	 C14	-5.390	208.120	113.290	C.2	1	UNK0	0.000	
29	 C15	-5.820	208.470	111.910	C.2	1	UNK0	0.000	
30	  N2	-7.260	208.050	111.790	N.pl3	1	UNK0	0.000	
31	 C16	-10.760	206.720	117.110	C.3	1	UNK0	0.000	
32	  O2	-11.350	205.870	116.110	O.3	1	UNK0	0.000	
@<TRIPOS>BOND
1 12 13 2
2 12 17 1
3 12 32 1
4 7 13 1
5 13 14 1
6 14 15 2
7 14 26 1
8 15 16 1
9 15 23 1
10 16 17 2
11 16 21 1
12 17 18 1
13 18 19 2
14 18 25 1
15 8 19 1
16 19 20 1
17 4 20 1
18 20 21 2
19 21 22 1
20 1 22 1
21 22 23 1
22 23 24 2
23 26 27 2
24 26 30 1
25 11 27 1
26 27 28 1
27 2 28 1
28 28 29 2
29 9 29 1
30 29 30 1
31 6 30 1
32 3 31 1
33 5 31 1
34 10 31 1
35 31 32 1
@<TRIPOS>SUBSTRUCTURE
1	UNK0	1	GROUP	1 ****	UNK
