# created with PyMOL 2.5.0
@<TRIPOS>MOLECULE
ZINC00003491
32 35 1                 
SMALL
USER_CHARGES
@<TRIPOS>ATOM
1	 H04	-11.920	206.590	109.220	 H	1	UNK0	0.000	
2	 H06	-4.690	208.180	114.050	 H	1	UNK0	0.000	
3	 H09	-11.580	207.740	116.810	 H	1	UNK0	0.000	
4	 H03	-14.450	205.650	110.610	 H	1	UNK0	0.000	
5	 H11	-12.480	206.630	117.860	 H	1	UNK0	0.000	
6	 H08	-7.980	208.040	111.150	 H	1	UNK0	0.000	
7	 H01	-9.240	206.580	115.580	 H	1	UNK0	0.000	
8	 H02	-15.350	205.010	112.880	 H	1	UNK0	0.000	
9	 H07	-5.480	208.790	111.390	 H	1	UNK0	0.000	
10	 H10	-13.150	207.060	116.270	 H	1	UNK0	0.000	
11	 H05	-7.010	206.980	115.320	 H	1	UNK0	0.000	
12	  C1	-11.230	206.040	114.960	C.2	1	UNK0	0.000	
13	  C2	-9.910	206.500	114.720	C.2	1	UNK0	0.000	
14	  C3	-9.420	206.860	113.440	C.2	1	UNK0	0.000	
15	  C4	-10.310	206.720	112.380	C.2	1	UNK0	0.000	
16	  C5	-11.710	206.200	112.680	C.2	1	UNK0	0.000	
17	  C6	-12.180	205.860	113.930	C.2	1	UNK0	0.000	
18	  C7	-13.520	205.400	113.940	C.2	1	UNK0	0.000	
19	  C8	-14.320	205.330	112.770	C.2	1	UNK0	0.000	
20	  C9	-13.840	205.680	111.490	C.2	1	UNK0	0.000	
21	 C10	-12.520	206.110	111.410	C.2	1	UNK0	0.000	
22	  N1	-11.620	206.560	110.210	N.pl3	1	UNK0	0.000	
23	 C11	-10.240	206.960	110.730	C.2	1	UNK0	0.000	
24	  O1	-9.270	207.360	110.090	O.2	1	UNK0	0.000	
25	  F1	-14.070	204.970	115.090	 F	1	UNK0	0.000	
26	 C12	-8.040	207.300	113.290	C.2	1	UNK0	0.000	
27	 C13	-6.940	207.320	114.300	C.2	1	UNK0	0.000	
28	 C14	-5.640	207.970	113.590	C.2	1	UNK0	0.000	
29	 C15	-6.020	208.300	112.190	C.2	1	UNK0	0.000	
30	  N2	-7.460	207.900	112.020	N.pl3	1	UNK0	0.000	
31	 C16	-12.230	206.850	116.820	C.3	1	UNK0	0.000	
32	  O2	-11.540	205.720	116.270	O.3	1	UNK0	0.000	
@<TRIPOS>BOND
1 12 13 2
2 12 17 1
3 12 32 1
4 7 13 1
5 13 14 1
6 14 15 2
7 14 26 1
8 15 16 1
9 15 23 1
10 16 17 2
11 16 21 1
12 17 18 1
13 18 19 2
14 18 25 1
15 8 19 1
16 19 20 1
17 4 20 1
18 20 21 2
19 21 22 1
20 1 22 1
21 22 23 1
22 23 24 2
23 26 27 2
24 26 30 1
25 11 27 1
26 27 28 1
27 2 28 1
28 28 29 2
29 9 29 1
30 29 30 1
31 6 30 1
32 3 31 1
33 5 31 1
34 10 31 1
35 31 32 1
@<TRIPOS>SUBSTRUCTURE
1	UNK0	1	GROUP	1 ****	UNK
