@<TRIPOS>MOLECULE
ZINC00003491
 21 24 0 0 0
SMALL
USER_CHARGES

@<TRIPOS>ATOM
      1 C1        -13.4900  206.5000  115.0300 C.2     1  UNK01       0.0000
      2 C2        -12.2000  207.1000  115.1700 C.2     1  UNK01       0.0000
      3 C3        -11.3500  207.4100  114.0700 C.2     1  UNK01       0.0000
      4 C4        -11.8500  207.0900  112.8100 C.2     1  UNK01       0.0000
      5 C5        -13.2100  206.4400  112.7100 C.2     1  UNK01       0.0000
      6 C6        -14.0200  206.1200  113.7700 C.2     1  UNK01       0.0000
      7 C7        -15.2400  205.5000  113.4100 C.2     1  UNK01       0.0000
      8 C8        -15.6100  205.2500  112.0600 C.2     1  UNK01       0.0000
      9 C9        -14.7800  205.5800  110.9600 C.2     1  UNK01       0.0000
     10 C10       -13.5700  206.1600  111.2600 C.2     1  UNK01       0.0000
     11 N1        -12.3700  206.6500  110.3600 N.am    1  UNK01       0.0000
     12 C11       -11.2600  207.2500  111.2300 C.2     1  UNK01       0.0000
     13 O1        -10.2100  207.7300  110.9100 O.2     1  UNK01       0.0000
     14 F1        -16.1100  205.0900  114.3500 F       1  UNK01       0.0000
     15 C12       -10.0500  207.9900  114.3000 C.2     1  UNK01       0.0000
     16 C13        -9.3400  208.3700  115.5500 C.2     1  UNK01       0.0000
     17 C14        -7.9100  209.0000  115.1400 C.2     1  UNK01       0.0000
     18 C15        -7.8300  208.9700  113.6500 C.2     1  UNK01       0.0000
     19 N2         -9.1200  208.3700  113.1600 N.pl3   1  UNK01       0.0000
     20 C16       -14.1700  207.2800  117.1300 C.3     1  UNK01       0.0000
     21 O2        -14.2800  206.2300  116.1600 O.2     1  UNK01       0.0000
@<TRIPOS>BOND
     1     1     2    2
     2     1     6    1
     3     1    21    1
     4     2     3    1
     5     3     4    2
     6     3    15    1
     7     4     5    1
     8     4    12    1
     9     5     6    2
    10     5    10    1
    11     6     7    1
    12     7     8    2
    13     7    14    1
    14     8     9    1
    15     9    10    2
    16    10    11    1
    17    11    12   am
    18    12    13    2
    19    15    16    2
    20    15    19    1
    21    16    17    1
    22    17    18    2
    23    18    19    1
    24    20    21    1
