@<TRIPOS>MOLECULE
ZINC00003491
 21 24 0 0 0
SMALL
USER_CHARGES

@<TRIPOS>ATOM
      1 C1         -8.5500  206.5500  116.5200 C.2     1  UNK01       0.0000
      2 C2         -7.1400  206.6200  116.3200 C.2     1  UNK01       0.0000
      3 C3         -6.5400  206.8300  115.0500 C.2     1  UNK01       0.0000
      4 C4         -7.4100  207.0000  113.9700 C.2     1  UNK01       0.0000
      5 C5         -8.9000  206.8600  114.2300 C.2     1  UNK01       0.0000
      6 C6         -9.4800  206.6100  115.4500 C.2     1  UNK01       0.0000
      7 C7        -10.8900  206.4100  115.4100 C.2     1  UNK01       0.0000
      8 C8        -11.6300  206.4800  114.2000 C.2     1  UNK01       0.0000
      9 C9        -11.0400  206.7300  112.9400 C.2     1  UNK01       0.0000
     10 C10        -9.6700  206.9300  112.9300 C.2     1  UNK01       0.0000
     11 N1         -8.6500  207.1500  111.7600 N.am    1  UNK01       0.0000
     12 C11        -7.2200  207.1900  112.3200 C.2     1  UNK01       0.0000
     13 O1         -6.1700  207.2500  111.7100 O.2     1  UNK01       0.0000
     14 F1        -11.5600  206.0900  116.5200 F       1  UNK01       0.0000
     15 C12        -5.1000  206.8000  114.9100 C.2     1  UNK01       0.0000
     16 C13        -4.0700  206.1200  115.7300 C.2     1  UNK01       0.0000
     17 C14        -2.6200  206.5300  115.1400 C.2     1  UNK01       0.0000
     18 C15        -2.8600  207.4300  113.9800 C.2     1  UNK01       0.0000
     19 N2         -4.3500  207.5900  113.8600 N.pl3   1  UNK01       0.0000
     20 C16        -9.5100  207.6400  118.2500 C.3     1  UNK01       0.0000
     21 O2         -8.9600  206.3800  117.8300 O.2     1  UNK01       0.0000
@<TRIPOS>BOND
     1     1     2    2
     2     1     6    1
     3     1    21    1
     4     2     3    1
     5     3     4    2
     6     3    15    1
     7     4     5    1
     8     4    12    1
     9     5     6    2
    10     5    10    1
    11     6     7    1
    12     7     8    2
    13     7    14    1
    14     8     9    1
    15     9    10    2
    16    10    11    1
    17    11    12   am
    18    12    13    2
    19    15    16    2
    20    15    19    1
    21    16    17    1
    22    17    18    2
    23    18    19    1
    24    20    21    1
