@<TRIPOS>MOLECULE
ZINC00003491
 21 24 0 0 0
SMALL
USER_CHARGES

@<TRIPOS>ATOM
      1 C1        -10.4400  207.4800  116.7500 C.2     1  UNK01       0.0000
      2 C2         -9.4200  207.6000  115.7600 C.2     1  UNK01       0.0000
      3 C3         -9.6000  207.2600  114.4000 C.2     1  UNK01       0.0000
      4 C4        -10.8700  206.7900  114.0300 C.2     1  UNK01       0.0000
      5 C5        -11.9100  206.6500  115.1300 C.2     1  UNK01       0.0000
      6 C6        -11.7200  206.9700  116.4500 C.2     1  UNK01       0.0000
      7 C7        -12.8600  206.7500  117.2700 C.2     1  UNK01       0.0000
      8 C8        -14.0800  206.2200  116.7700 C.2     1  UNK01       0.0000
      9 C9        -14.2700  205.8800  115.4100 C.2     1  UNK01       0.0000
     10 C10       -13.2000  206.1000  114.5600 C.2     1  UNK01       0.0000
     11 N1        -13.0100  205.8700  113.0200 N.am    1  UNK01       0.0000
     12 C11       -11.5900  206.2700  112.6100 C.2     1  UNK01       0.0000
     13 O1        -11.1100  206.2200  111.4900 O.2     1  UNK01       0.0000
     14 F1        -12.8200  207.0400  118.5800 F       1  UNK01       0.0000
     15 C12        -8.5100  207.4900  113.4700 C.2     1  UNK01       0.0000
     16 C13        -8.4900  207.9600  112.0600 C.2     1  UNK01       0.0000
     17 C14        -6.9400  208.2600  111.6700 C.2     1  UNK01       0.0000
     18 C15        -6.1200  207.9300  112.8600 C.2     1  UNK01       0.0000
     19 N2         -7.0700  207.4600  113.9300 N.pl3   1  UNK01       0.0000
     20 C16        -9.5700  209.1500  118.1100 C.3     1  UNK01       0.0000
     21 O2        -10.1600  207.8400  118.0600 O.2     1  UNK01       0.0000
@<TRIPOS>BOND
     1     1     2    2
     2     1     6    1
     3     1    21    1
     4     2     3    1
     5     3     4    2
     6     3    15    1
     7     4     5    1
     8     4    12    1
     9     5     6    2
    10     5    10    1
    11     6     7    1
    12     7     8    2
    13     7    14    1
    14     8     9    1
    15     9    10    2
    16    10    11    1
    17    11    12   am
    18    12    13    2
    19    15    16    2
    20    15    19    1
    21    16    17    1
    22    17    18    2
    23    18    19    1
    24    20    21    1
