@<TRIPOS>MOLECULE
ZINC00003491
 21 24 0 0 0
SMALL
USER_CHARGES

@<TRIPOS>ATOM
      1 C1         -5.5200  207.6400  115.2200 C.2     1  UNK01       0.0000
      2 C2         -4.3600  207.5100  114.3700 C.2     1  UNK01       0.0000
      3 C3         -4.4200  207.4600  112.9700 C.2     1  UNK01       0.0000
      4 C4         -5.6700  207.6100  112.3800 C.2     1  UNK01       0.0000
      5 C5         -6.8800  207.7600  113.3000 C.2     1  UNK01       0.0000
      6 C6         -6.8200  207.7700  114.6600 C.2     1  UNK01       0.0000
      7 C7         -8.1000  207.8600  115.3000 C.2     1  UNK01       0.0000
      8 C8         -9.3100  207.9100  114.5500 C.2     1  UNK01       0.0000
      9 C9         -9.3700  207.8900  113.1500 C.2     1  UNK01       0.0000
     10 C10        -8.1500  207.8200  112.4800 C.2     1  UNK01       0.0000
     11 N1         -7.7700  207.7000  110.9600 N.am    1  UNK01       0.0000
     12 C11        -6.2600  207.5700  110.8200 C.2     1  UNK01       0.0000
     13 O1         -5.5800  207.3900  109.8100 O.2     1  UNK01       0.0000
     14 F1         -8.1800  207.8800  116.6300 F       1  UNK01       0.0000
     15 C12        -3.2100  207.2800  112.1300 C.2     1  UNK01       0.0000
     16 C13        -1.8300  206.8900  112.5300 C.2     1  UNK01       0.0000
     17 C14        -0.9200  206.9400  111.2000 C.2     1  UNK01       0.0000
     18 C15        -1.8000  207.3300  110.0700 C.2     1  UNK01       0.0000
     19 N2         -3.1600  207.5300  110.6500 N.pl3   1  UNK01       0.0000
     20 C16        -4.4200  206.7300  117.0500 C.3     1  UNK01       0.0000
     21 O2         -5.3700  207.6900  116.5800 O.2     1  UNK01       0.0000
@<TRIPOS>BOND
     1     1     2    2
     2     1     6    1
     3     1    21    1
     4     2     3    1
     5     3     4    2
     6     3    15    1
     7     4     5    1
     8     4    12    1
     9     5     6    2
    10     5    10    1
    11     6     7    1
    12     7     8    2
    13     7    14    1
    14     8     9    1
    15     9    10    2
    16    10    11    1
    17    11    12   am
    18    12    13    2
    19    15    16    2
    20    15    19    1
    21    16    17    1
    22    17    18    2
    23    18    19    1
    24    20    21    1
