# created with PyMOL 2.5.0
@<TRIPOS>MOLECULE
ZINC00003491
32 35 1                 
SMALL
USER_CHARGES
@<TRIPOS>ATOM
1	 H04	-13.440	206.880	108.860	 H	1	UNK0	0.000	
2	 H06	-5.960	207.740	113.480	 H	1	UNK0	0.000	
3	 H09	-10.760	205.050	116.380	 H	1	UNK0	0.000	
4	 H03	-15.830	205.580	110.160	 H	1	UNK0	0.000	
5	 H11	-11.020	203.310	116.070	 H	1	UNK0	0.000	
6	 H08	-9.190	207.520	110.520	 H	1	UNK0	0.000	
7	 H01	-10.170	205.570	114.670	 H	1	UNK0	0.000	
8	 H02	-16.530	204.400	112.260	 H	1	UNK0	0.000	
9	 H07	-6.660	208.200	110.770	 H	1	UNK0	0.000	
10	 H10	-11.900	204.140	117.370	 H	1	UNK0	0.000	
11	 H05	-8.310	206.650	114.730	 H	1	UNK0	0.000	
12	  C1	-12.250	205.040	114.220	C.2	1	UNK0	0.000	
13	  C2	-10.960	205.600	113.950	C.2	1	UNK0	0.000	
14	  C3	-10.590	206.250	112.760	C.2	1	UNK0	0.000	
15	  C4	-11.550	206.270	111.760	C.2	1	UNK0	0.000	
16	  C5	-12.910	205.670	112.060	C.2	1	UNK0	0.000	
17	  C6	-13.280	205.070	113.250	C.2	1	UNK0	0.000	
18	  C7	-14.620	204.600	113.260	C.2	1	UNK0	0.000	
19	  C8	-15.510	204.770	112.170	C.2	1	UNK0	0.000	
20	  C9	-15.140	205.410	110.970	C.2	1	UNK0	0.000	
21	 C10	-13.840	205.850	110.890	C.2	1	UNK0	0.000	
22	  N1	-13.080	206.650	109.790	N.pl3	1	UNK0	0.000	
23	 C11	-11.640	206.900	110.230	C.2	1	UNK0	0.000	
24	  O1	-10.740	207.390	109.580	O.2	1	UNK0	0.000	
25	  F1	-15.110	203.930	114.330	 F	1	UNK0	0.000	
26	 C12	-9.270	206.840	112.660	C.2	1	UNK0	0.000	
27	 C13	-8.220	206.940	113.700	C.2	1	UNK0	0.000	
28	 C14	-6.910	207.540	113.010	C.2	1	UNK0	0.000	
29	 C15	-7.240	207.780	111.580	C.2	1	UNK0	0.000	
30	  N2	-8.680	207.390	111.390	N.pl3	1	UNK0	0.000	
31	 C16	-11.500	204.250	116.360	C.3	1	UNK0	0.000	
32	  O2	-12.590	204.510	115.470	O.3	1	UNK0	0.000	
@<TRIPOS>BOND
1 12 13 2
2 12 17 1
3 12 32 1
4 7 13 1
5 13 14 1
6 14 15 2
7 14 26 1
8 15 16 1
9 15 23 1
10 16 17 2
11 16 21 1
12 17 18 1
13 18 19 2
14 18 25 1
15 8 19 1
16 19 20 1
17 4 20 1
18 20 21 2
19 21 22 1
20 1 22 1
21 22 23 1
22 23 24 2
23 26 27 2
24 26 30 1
25 11 27 1
26 27 28 1
27 2 28 1
28 28 29 2
29 9 29 1
30 29 30 1
31 6 30 1
32 3 31 1
33 5 31 1
34 10 31 1
35 31 32 1
@<TRIPOS>SUBSTRUCTURE
1	UNK0	1	GROUP	1 ****	UNK
