# created with PyMOL 2.5.0
@<TRIPOS>MOLECULE
ZINC00003491
32 35 1                 
SMALL
USER_CHARGES
@<TRIPOS>ATOM
1	 H04	-11.590	207.320	109.790	 H	1	UNK0	0.000	
2	 H06	-4.730	209.390	112.940	 H	1	UNK0	0.000	
3	 H09	-12.670	207.880	116.860	 H	1	UNK0	0.000	
4	 H03	-14.180	206.330	111.130	 H	1	UNK0	0.000	
5	 H11	-11.010	208.270	117.430	 H	1	UNK0	0.000	
6	 H08	-6.860	206.730	115.710	 H	1	UNK0	0.000	
7	 H01	-8.980	207.070	116.170	 H	1	UNK0	0.000	
8	 H02	-15.100	205.710	113.410	 H	1	UNK0	0.000	
9	 H07	-4.480	207.790	115.290	 H	1	UNK0	0.000	
10	 H10	-12.090	207.300	118.440	 H	1	UNK0	0.000	
11	 H05	-7.480	209.160	112.100	 H	1	UNK0	0.000	
12	  C1	-10.960	206.590	115.520	C.2	1	UNK0	0.000	
13	  C2	-9.630	207.000	115.300	C.2	1	UNK0	0.000	
14	  C3	-9.110	207.350	114.030	C.2	1	UNK0	0.000	
15	  C4	-10.000	207.270	112.950	C.2	1	UNK0	0.000	
16	  C5	-11.410	206.780	113.230	C.2	1	UNK0	0.000	
17	  C6	-11.910	206.460	114.470	C.2	1	UNK0	0.000	
18	  C7	-13.270	206.070	114.480	C.2	1	UNK0	0.000	
19	  C8	-14.060	206.020	113.300	C.2	1	UNK0	0.000	
20	  C9	-13.560	206.350	112.020	C.2	1	UNK0	0.000	
21	 C10	-12.230	206.740	111.950	C.2	1	UNK0	0.000	
22	  N1	-11.320	207.230	110.770	N.pl3	1	UNK0	0.000	
23	 C11	-9.930	207.570	111.300	C.2	1	UNK0	0.000	
24	  O1	-8.980	207.980	110.650	O.2	1	UNK0	0.000	
25	  F1	-13.860	205.730	115.630	 F	1	UNK0	0.000	
26	 C12	-7.740	207.790	113.940	C.2	1	UNK0	0.000	
27	 C13	-7.040	208.680	112.960	C.2	1	UNK0	0.000	
28	 C14	-5.500	208.810	113.430	C.2	1	UNK0	0.000	
29	 C15	-5.340	207.990	114.670	C.2	1	UNK0	0.000	
30	  N2	-6.690	207.390	114.950	N.pl3	1	UNK0	0.000	
31	 C16	-11.790	207.510	117.410	C.3	1	UNK0	0.000	
32	  O2	-11.310	206.290	116.820	O.3	1	UNK0	0.000	
@<TRIPOS>BOND
1 12 13 2
2 12 17 1
3 12 32 1
4 7 13 1
5 13 14 1
6 14 15 2
7 14 26 1
8 15 16 1
9 15 23 1
10 16 17 2
11 16 21 1
12 17 18 1
13 18 19 2
14 18 25 1
15 8 19 1
16 19 20 1
17 4 20 1
18 20 21 2
19 21 22 1
20 1 22 1
21 22 23 1
22 23 24 2
23 26 27 2
24 26 30 1
25 11 27 1
26 27 28 1
27 2 28 1
28 28 29 2
29 9 29 1
30 29 30 1
31 6 30 1
32 3 31 1
33 5 31 1
34 10 31 1
35 31 32 1
@<TRIPOS>SUBSTRUCTURE
1	UNK0	1	GROUP	1 ****	UNK
