# created with PyMOL 2.5.0
@<TRIPOS>MOLECULE
ZINC00003491
32 35 1                 
SMALL
USER_CHARGES
@<TRIPOS>ATOM
1	 H04	-8.920	207.300	110.780	 H	1	UNK0	0.000	
2	 H06	-1.650	206.230	115.510	 H	1	UNK0	0.000	
3	 H09	-8.730	208.410	118.220	 H	1	UNK0	0.000	
4	 H03	-11.610	206.770	112.020	 H	1	UNK0	0.000	
5	 H11	-9.840	207.530	119.290	 H	1	UNK0	0.000	
6	 H08	-4.800	208.210	113.180	 H	1	UNK0	0.000	
7	 H01	-6.490	206.510	117.180	 H	1	UNK0	0.000	
8	 H02	-12.700	206.310	114.250	 H	1	UNK0	0.000	
9	 H07	-2.180	207.980	113.350	 H	1	UNK0	0.000	
10	 H10	-10.360	207.940	117.650	 H	1	UNK0	0.000	
11	 H05	-4.250	205.470	116.580	 H	1	UNK0	0.000	
12	  C1	-8.550	206.550	116.520	C.2	1	UNK0	0.000	
13	  C2	-7.140	206.620	116.320	C.2	1	UNK0	0.000	
14	  C3	-6.540	206.830	115.050	C.2	1	UNK0	0.000	
15	  C4	-7.410	207.000	113.970	C.2	1	UNK0	0.000	
16	  C5	-8.900	206.860	114.230	C.2	1	UNK0	0.000	
17	  C6	-9.480	206.610	115.450	C.2	1	UNK0	0.000	
18	  C7	-10.890	206.410	115.410	C.2	1	UNK0	0.000	
19	  C8	-11.630	206.480	114.200	C.2	1	UNK0	0.000	
20	  C9	-11.040	206.730	112.940	C.2	1	UNK0	0.000	
21	 C10	-9.670	206.930	112.930	C.2	1	UNK0	0.000	
22	  N1	-8.650	207.150	111.760	N.pl3	1	UNK0	0.000	
23	 C11	-7.220	207.190	112.320	C.2	1	UNK0	0.000	
24	  O1	-6.170	207.250	111.710	O.2	1	UNK0	0.000	
25	  F1	-11.560	206.090	116.520	 F	1	UNK0	0.000	
26	 C12	-5.100	206.800	114.910	C.2	1	UNK0	0.000	
27	 C13	-4.070	206.120	115.730	C.2	1	UNK0	0.000	
28	 C14	-2.620	206.530	115.140	C.2	1	UNK0	0.000	
29	 C15	-2.860	207.430	113.980	C.2	1	UNK0	0.000	
30	  N2	-4.350	207.590	113.860	N.pl3	1	UNK0	0.000	
31	 C16	-9.510	207.640	118.250	C.3	1	UNK0	0.000	
32	  O2	-8.960	206.380	117.830	O.3	1	UNK0	0.000	
@<TRIPOS>BOND
1 12 13 2
2 12 17 1
3 12 32 1
4 7 13 1
5 13 14 1
6 14 15 2
7 14 26 1
8 15 16 1
9 15 23 1
10 16 17 2
11 16 21 1
12 17 18 1
13 18 19 2
14 18 25 1
15 8 19 1
16 19 20 1
17 4 20 1
18 20 21 2
19 21 22 1
20 1 22 1
21 22 23 1
22 23 24 2
23 26 27 2
24 26 30 1
25 11 27 1
26 27 28 1
27 2 28 1
28 28 29 2
29 9 29 1
30 29 30 1
31 6 30 1
32 3 31 1
33 5 31 1
34 10 31 1
35 31 32 1
@<TRIPOS>SUBSTRUCTURE
1	UNK0	1	GROUP	1 ****	UNK
