@<TRIPOS>MOLECULE
ZINC00003491
 21 24 0 0 0
SMALL
USER_CHARGES

@<TRIPOS>ATOM
      1 C1        -12.8000  206.6300  115.2300 C.2     1  UNK01       0.0000
      2 C2        -11.6200  207.0900  115.9000 C.2     1  UNK01       0.0000
      3 C3        -10.4300  207.4900  115.2300 C.2     1  UNK01       0.0000
      4 C4        -10.4500  207.4200  113.8400 C.2     1  UNK01       0.0000
      5 C5        -11.7100  206.9100  113.1600 C.2     1  UNK01       0.0000
      6 C6        -12.8600  206.5200  113.8100 C.2     1  UNK01       0.0000
      7 C7        -13.9100  206.1400  112.9400 C.2     1  UNK01       0.0000
      8 C8        -13.8100  206.2100  111.5300 C.2     1  UNK01       0.0000
      9 C9        -12.6500  206.6600  110.8600 C.2     1  UNK01       0.0000
     10 C10       -11.5700  207.0200  111.6500 C.2     1  UNK01       0.0000
     11 N1        -10.1700  207.6400  111.3300 N.am    1  UNK01       0.0000
     12 C11        -9.4100  207.9100  112.6300 C.2     1  UNK01       0.0000
     13 O1         -8.3400  208.4700  112.8200 O.2     1  UNK01       0.0000
     14 F1        -15.1000  205.7600  113.4400 F       1  UNK01       0.0000
     15 C12        -9.2200  207.8300  115.9900 C.2     1  UNK01       0.0000
     16 C13        -8.8900  207.6300  117.4300 C.2     1  UNK01       0.0000
     17 C14        -7.3100  207.8800  117.6000 C.2     1  UNK01       0.0000
     18 C15        -6.7700  208.2900  116.2800 C.2     1  UNK01       0.0000
     19 N2         -7.9400  208.2500  115.3200 N.pl3   1  UNK01       0.0000
     20 C16       -14.0200  206.7200  117.2600 C.3     1  UNK01       0.0000
     21 O2        -13.9600  206.2500  115.9200 O.2     1  UNK01       0.0000
@<TRIPOS>BOND
     1     1     2    2
     2     1     6    1
     3     1    21    1
     4     2     3    1
     5     3     4    2
     6     3    15    1
     7     4     5    1
     8     4    12    1
     9     5     6    2
    10     5    10    1
    11     6     7    1
    12     7     8    2
    13     7    14    1
    14     8     9    1
    15     9    10    2
    16    10    11    1
    17    11    12   am
    18    12    13    2
    19    15    16    2
    20    15    19    1
    21    16    17    1
    22    17    18    2
    23    18    19    1
    24    20    21    1
