step2_200_2000_5.0_15568.xyz.gro
  PyMOL2.5          3D                             0

 21 24  0  0  0  0  0  0  0  0999 V2000
   -9.3938  205.5055  118.3059 C   0  0  0  0  0  0  0  0  0  0  0  0
   -8.0636  206.0351  118.2857 C   0  0  0  0  0  0  0  0  0  0  0  0
   -7.6036  206.9552  117.3158 C   0  0  0  0  0  0  0  0  0  0  0  0
   -8.5138  207.3359  116.3363 C   0  0  0  0  0  0  0  0  0  0  0  0
   -9.9140  206.7464  116.3865 C   0  0  0  0  0  0  0  0  0  0  0  0
  -10.3540  205.8462  117.3264 C   0  0  0  0  0  0  0  0  0  0  0  0
  -11.6942  205.4167  117.1266 C   0  0  0  0  0  0  0  0  0  0  0  0
  -12.4944  205.8774  116.0571 C   0  0  0  0  0  0  0  0  0  0  0  0
  -12.0344  206.7876  115.0772 C   0  0  0  0  0  0  0  0  0  0  0  0
  -10.7342  207.2271  115.2070 C   0  0  0  0  0  0  0  0  0  0  0  0
   -9.8242  208.1771  114.3270 N   0  0  0  0  0  0  0  0  0  0  0  0
   -8.4339  208.2864  114.9666 C   0  0  0  0  0  0  0  0  0  0  0  0
   -6.2834  207.5148  117.4156 C   0  0  0  0  0  0  0  0  0  0  0  0
   -5.0434  206.9641  118.0450 C   0  0  0  0  0  0  0  0  0  0  0  0
   -3.9130  208.1237  117.9850 C   0  0  0  0  0  0  0  0  0  0  0  0
   -4.5228  209.3042  117.3256 C   0  0  0  0  0  0  0  0  0  0  0  0
   -5.9430  208.9248  116.9960 N   0  0  0  0  0  0  0  0  0  0  0  0
   -7.4439  208.8362  114.5064 O   0  0  0  0  0  0  0  0  0  0  0  0
  -12.2542  204.5367  117.9865 F1  0  0  0  0  0  0  0  0  0  0  0  0
   -9.2432  204.9347  120.5657 C   0  0  0  0  0  0  0  0  0  0  0  0
   -9.7738  204.5753  119.2857 O   0  0  0  0  0  0  0  0  0  0  0  0
  1  2  1  0  0  0  0
  1  6  1  0  0  0  0
  1 21  1  0  0  0  0
  2  3  1  0  0  0  0
  3  4  1  0  0  0  0
  3 13  1  0  0  0  0
  4  5  1  0  0  0  0
  4 12  1  0  0  0  0
  5  6  1  0  0  0  0
  5 10  1  0  0  0  0
  6  7  1  0  0  0  0
  7  8  1  0  0  0  0
  7 19  1  0  0  0  0
  8  9  1  0  0  0  0
  9 10  1  0  0  0  0
 10 11  1  0  0  0  0
 11 12  1  0  0  0  0
 12 18  1  0  0  0  0
 13 14  1  0  0  0  0
 13 17  1  0  0  0  0
 14 15  1  0  0  0  0
 15 16  1  0  0  0  0
 16 17  1  0  0  0  0
 20 21  1  0  0  0  0
M  END
$$$$
