# created with PyMOL 2.5.0
@<TRIPOS>MOLECULE
ZINC00003491
32 35 1                 
SMALL
USER_CHARGES
@<TRIPOS>ATOM
1	 H04	-12.320	206.560	109.340	 H	1	UNK0	0.000	
2	 H06	-7.160	209.380	115.820	 H	1	UNK0	0.000	
3	 H09	-15.000	207.170	117.820	 H	1	UNK0	0.000	
4	 H03	-15.080	205.410	109.940	 H	1	UNK0	0.000	
5	 H11	-14.240	208.270	116.660	 H	1	UNK0	0.000	
6	 H08	-9.350	208.220	112.180	 H	1	UNK0	0.000	
7	 H01	-11.800	207.320	116.150	 H	1	UNK0	0.000	
8	 H02	-16.580	204.800	111.870	 H	1	UNK0	0.000	
9	 H07	-7.060	209.290	112.970	 H	1	UNK0	0.000	
10	 H10	-13.230	207.180	117.690	 H	1	UNK0	0.000	
11	 H05	-9.720	208.270	116.560	 H	1	UNK0	0.000	
12	  C1	-13.490	206.500	115.030	C.2	1	UNK0	0.000	
13	  C2	-12.200	207.100	115.170	C.2	1	UNK0	0.000	
14	  C3	-11.350	207.410	114.070	C.2	1	UNK0	0.000	
15	  C4	-11.850	207.090	112.810	C.2	1	UNK0	0.000	
16	  C5	-13.210	206.440	112.710	C.2	1	UNK0	0.000	
17	  C6	-14.020	206.120	113.770	C.2	1	UNK0	0.000	
18	  C7	-15.240	205.500	113.410	C.2	1	UNK0	0.000	
19	  C8	-15.610	205.250	112.060	C.2	1	UNK0	0.000	
20	  C9	-14.780	205.580	110.960	C.2	1	UNK0	0.000	
21	 C10	-13.570	206.160	111.260	C.2	1	UNK0	0.000	
22	  N1	-12.370	206.650	110.360	N.pl3	1	UNK0	0.000	
23	 C11	-11.260	207.250	111.230	C.2	1	UNK0	0.000	
24	  O1	-10.210	207.730	110.910	O.2	1	UNK0	0.000	
25	  F1	-16.110	205.090	114.350	 F	1	UNK0	0.000	
26	 C12	-10.050	207.990	114.300	C.2	1	UNK0	0.000	
27	 C13	-9.340	208.370	115.550	C.2	1	UNK0	0.000	
28	 C14	-7.910	209.000	115.140	C.2	1	UNK0	0.000	
29	 C15	-7.830	208.970	113.650	C.2	1	UNK0	0.000	
30	  N2	-9.120	208.370	113.160	N.pl3	1	UNK0	0.000	
31	 C16	-14.170	207.280	117.130	C.3	1	UNK0	0.000	
32	  O2	-14.280	206.230	116.160	O.3	1	UNK0	0.000	
@<TRIPOS>BOND
1 12 13 2
2 12 17 1
3 12 32 1
4 7 13 1
5 13 14 1
6 14 15 2
7 14 26 1
8 15 16 1
9 15 23 1
10 16 17 2
11 16 21 1
12 17 18 1
13 18 19 2
14 18 25 1
15 8 19 1
16 19 20 1
17 4 20 1
18 20 21 2
19 21 22 1
20 1 22 1
21 22 23 1
22 23 24 2
23 26 27 2
24 26 30 1
25 11 27 1
26 27 28 1
27 2 28 1
28 28 29 2
29 9 29 1
30 29 30 1
31 6 30 1
32 3 31 1
33 5 31 1
34 10 31 1
35 31 32 1
@<TRIPOS>SUBSTRUCTURE
1	UNK0	1	GROUP	1 ****	UNK
