# created with PyMOL 2.5.0
@<TRIPOS>MOLECULE
ZINC00003491
32 35 1                 
SMALL
USER_CHARGES
@<TRIPOS>ATOM
1	 H04	-11.130	206.030	108.980	 H	1	UNK0	0.000	
2	 H06	-3.480	206.530	110.510	 H	1	UNK0	0.000	
3	 H09	-8.990	210.460	114.910	 H	1	UNK0	0.000	
4	 H03	-13.530	206.310	110.890	 H	1	UNK0	0.000	
5	 H11	-7.950	209.450	115.970	 H	1	UNK0	0.000	
6	 H08	-5.840	209.580	112.580	 H	1	UNK0	0.000	
7	 H01	-7.390	208.430	114.210	 H	1	UNK0	0.000	
8	 H02	-14.060	207.010	113.250	 H	1	UNK0	0.000	
9	 H07	-3.400	209.080	111.730	 H	1	UNK0	0.000	
10	 H10	-9.400	210.240	116.620	 H	1	UNK0	0.000	
11	 H05	-6.230	205.620	110.750	 H	1	UNK0	0.000	
12	  C1	-9.550	208.110	114.170	C.2	1	UNK0	0.000	
13	  C2	-8.240	208.090	113.610	C.2	1	UNK0	0.000	
14	  C3	-7.920	207.600	112.330	C.2	1	UNK0	0.000	
15	  C4	-9.010	207.080	111.590	C.2	1	UNK0	0.000	
16	  C5	-10.380	207.140	112.200	C.2	1	UNK0	0.000	
17	  C6	-10.680	207.600	113.460	C.2	1	UNK0	0.000	
18	  C7	-12.040	207.520	113.800	C.2	1	UNK0	0.000	
19	  C8	-13.050	207.030	112.910	C.2	1	UNK0	0.000	
20	  C9	-12.740	206.650	111.580	C.2	1	UNK0	0.000	
21	 C10	-11.430	206.660	111.200	C.2	1	UNK0	0.000	
22	  N1	-10.680	206.290	109.870	N.pl3	1	UNK0	0.000	
23	 C11	-9.180	206.500	110.030	C.2	1	UNK0	0.000	
24	  O1	-8.290	206.190	109.260	O.2	1	UNK0	0.000	
25	  F1	-12.470	207.900	115.030	 F	1	UNK0	0.000	
26	 C12	-6.580	207.590	111.860	C.2	1	UNK0	0.000	
27	 C13	-5.830	206.530	111.110	C.2	1	UNK0	0.000	
28	 C14	-4.290	207.050	110.960	C.2	1	UNK0	0.000	
29	 C15	-4.210	208.410	111.610	C.2	1	UNK0	0.000	
30	  N2	-5.600	208.710	112.140	N.pl3	1	UNK0	0.000	
31	 C16	-8.970	209.760	115.740	C.3	1	UNK0	0.000	
32	  O2	-9.790	208.580	115.460	O.3	1	UNK0	0.000	
@<TRIPOS>BOND
1 12 13 2
2 12 17 1
3 12 32 1
4 7 13 1
5 13 14 1
6 14 15 2
7 14 26 1
8 15 16 1
9 15 23 1
10 16 17 2
11 16 21 1
12 17 18 1
13 18 19 2
14 18 25 1
15 8 19 1
16 19 20 1
17 4 20 1
18 20 21 2
19 21 22 1
20 1 22 1
21 22 23 1
22 23 24 2
23 26 27 2
24 26 30 1
25 11 27 1
26 27 28 1
27 2 28 1
28 28 29 2
29 9 29 1
30 29 30 1
31 6 30 1
32 3 31 1
33 5 31 1
34 10 31 1
35 31 32 1
@<TRIPOS>SUBSTRUCTURE
1	UNK0	1	GROUP	1 ****	UNK
