# created with PyMOL 2.5.0
@<TRIPOS>MOLECULE
ZINC00003491
32 35 1                 
SMALL
USER_CHARGES
@<TRIPOS>ATOM
1	 H04	-13.720	205.530	112.380	 H	1	UNK0	0.000	
2	 H06	-6.570	208.650	110.740	 H	1	UNK0	0.000	
3	 H09	-9.650	209.520	119.130	 H	1	UNK0	0.000	
4	 H03	-15.210	205.470	115.050	 H	1	UNK0	0.000	
5	 H11	-10.080	209.840	117.440	 H	1	UNK0	0.000	
6	 H08	-6.780	207.120	114.840	 H	1	UNK0	0.000	
7	 H01	-8.440	207.950	116.060	 H	1	UNK0	0.000	
8	 H02	-14.890	206.060	117.470	 H	1	UNK0	0.000	
9	 H07	-5.050	207.990	113.040	 H	1	UNK0	0.000	
10	 H10	-8.510	209.090	117.850	 H	1	UNK0	0.000	
11	 H05	-9.350	208.100	111.420	 H	1	UNK0	0.000	
12	  C1	-10.440	207.480	116.750	C.2	1	UNK0	0.000	
13	  C2	-9.420	207.600	115.760	C.2	1	UNK0	0.000	
14	  C3	-9.600	207.260	114.400	C.2	1	UNK0	0.000	
15	  C4	-10.870	206.790	114.030	C.2	1	UNK0	0.000	
16	  C5	-11.910	206.650	115.130	C.2	1	UNK0	0.000	
17	  C6	-11.720	206.970	116.450	C.2	1	UNK0	0.000	
18	  C7	-12.860	206.750	117.270	C.2	1	UNK0	0.000	
19	  C8	-14.080	206.220	116.770	C.2	1	UNK0	0.000	
20	  C9	-14.270	205.880	115.410	C.2	1	UNK0	0.000	
21	 C10	-13.200	206.100	114.560	C.2	1	UNK0	0.000	
22	  N1	-13.010	205.870	113.020	N.pl3	1	UNK0	0.000	
23	 C11	-11.590	206.270	112.610	C.2	1	UNK0	0.000	
24	  O1	-11.110	206.220	111.490	O.2	1	UNK0	0.000	
25	  F1	-12.820	207.040	118.580	 F	1	UNK0	0.000	
26	 C12	-8.510	207.490	113.470	C.2	1	UNK0	0.000	
27	 C13	-8.490	207.960	112.060	C.2	1	UNK0	0.000	
28	 C14	-6.940	208.260	111.670	C.2	1	UNK0	0.000	
29	 C15	-6.120	207.930	112.860	C.2	1	UNK0	0.000	
30	  N2	-7.070	207.460	113.930	N.pl3	1	UNK0	0.000	
31	 C16	-9.570	209.150	118.110	C.3	1	UNK0	0.000	
32	  O2	-10.160	207.840	118.060	O.3	1	UNK0	0.000	
@<TRIPOS>BOND
1 12 13 2
2 12 17 1
3 12 32 1
4 7 13 1
5 13 14 1
6 14 15 2
7 14 26 1
8 15 16 1
9 15 23 1
10 16 17 2
11 16 21 1
12 17 18 1
13 18 19 2
14 18 25 1
15 8 19 1
16 19 20 1
17 4 20 1
18 20 21 2
19 21 22 1
20 1 22 1
21 22 23 1
22 23 24 2
23 26 27 2
24 26 30 1
25 11 27 1
26 27 28 1
27 2 28 1
28 28 29 2
29 9 29 1
30 29 30 1
31 6 30 1
32 3 31 1
33 5 31 1
34 10 31 1
35 31 32 1
@<TRIPOS>SUBSTRUCTURE
1	UNK0	1	GROUP	1 ****	UNK
