# created with PyMOL 2.5.0
@<TRIPOS>MOLECULE
ZINC00003491
32 35 1                 
SMALL
USER_CHARGES
@<TRIPOS>ATOM
1	 H04	-9.840	207.920	110.400	 H	1	UNK0	0.000	
2	 H06	-6.730	207.740	118.510	 H	1	UNK0	0.000	
3	 H09	-13.870	207.810	117.300	 H	1	UNK0	0.000	
4	 H03	-12.580	206.740	109.780	 H	1	UNK0	0.000	
5	 H11	-13.270	206.210	117.880	 H	1	UNK0	0.000	
6	 H08	-7.870	208.420	114.310	 H	1	UNK0	0.000	
7	 H01	-11.590	207.190	116.970	 H	1	UNK0	0.000	
8	 H02	-14.670	205.920	110.940	 H	1	UNK0	0.000	
9	 H07	-5.770	208.530	115.930	 H	1	UNK0	0.000	
10	 H10	-15.010	206.500	117.660	 H	1	UNK0	0.000	
11	 H05	-9.590	207.340	118.200	 H	1	UNK0	0.000	
12	  C1	-12.800	206.630	115.230	C.2	1	UNK0	0.000	
13	  C2	-11.620	207.090	115.900	C.2	1	UNK0	0.000	
14	  C3	-10.430	207.490	115.230	C.2	1	UNK0	0.000	
15	  C4	-10.450	207.420	113.840	C.2	1	UNK0	0.000	
16	  C5	-11.710	206.910	113.160	C.2	1	UNK0	0.000	
17	  C6	-12.860	206.520	113.810	C.2	1	UNK0	0.000	
18	  C7	-13.910	206.140	112.940	C.2	1	UNK0	0.000	
19	  C8	-13.810	206.210	111.530	C.2	1	UNK0	0.000	
20	  C9	-12.650	206.660	110.860	C.2	1	UNK0	0.000	
21	 C10	-11.570	207.020	111.650	C.2	1	UNK0	0.000	
22	  N1	-10.170	207.640	111.330	N.pl3	1	UNK0	0.000	
23	 C11	-9.410	207.910	112.630	C.2	1	UNK0	0.000	
24	  O1	-8.340	208.470	112.820	O.2	1	UNK0	0.000	
25	  F1	-15.100	205.760	113.440	 F	1	UNK0	0.000	
26	 C12	-9.220	207.830	115.990	C.2	1	UNK0	0.000	
27	 C13	-8.890	207.630	117.430	C.2	1	UNK0	0.000	
28	 C14	-7.310	207.880	117.600	C.2	1	UNK0	0.000	
29	 C15	-6.770	208.290	116.280	C.2	1	UNK0	0.000	
30	  N2	-7.940	208.250	115.320	N.pl3	1	UNK0	0.000	
31	 C16	-14.020	206.720	117.260	C.3	1	UNK0	0.000	
32	  O2	-13.960	206.250	115.920	O.3	1	UNK0	0.000	
@<TRIPOS>BOND
1 12 13 2
2 12 17 1
3 12 32 1
4 7 13 1
5 13 14 1
6 14 15 2
7 14 26 1
8 15 16 1
9 15 23 1
10 16 17 2
11 16 21 1
12 17 18 1
13 18 19 2
14 18 25 1
15 8 19 1
16 19 20 1
17 4 20 1
18 20 21 2
19 21 22 1
20 1 22 1
21 22 23 1
22 23 24 2
23 26 27 2
24 26 30 1
25 11 27 1
26 27 28 1
27 2 28 1
28 28 29 2
29 9 29 1
30 29 30 1
31 6 30 1
32 3 31 1
33 5 31 1
34 10 31 1
35 31 32 1
@<TRIPOS>SUBSTRUCTURE
1	UNK0	1	GROUP	1 ****	UNK
