@<TRIPOS>MOLECULE
ZINC00003491
 21 24 0 0 0
SMALL
USER_CHARGES

@<TRIPOS>ATOM
      1 C1        -10.0800  207.3500  114.5000 C.2     1  UNK01       0.0000
      2 C2         -8.8200  207.7500  113.9600 C.2     1  UNK01       0.0000
      3 C3         -8.5900  207.9700  112.5800 C.2     1  UNK01       0.0000
      4 C4         -9.7000  207.8300  111.7400 C.2     1  UNK01       0.0000
      5 C5        -11.0200  207.4000  112.3600 C.2     1  UNK01       0.0000
      6 C6        -11.2300  207.1600  113.6900 C.2     1  UNK01       0.0000
      7 C7        -12.5300  206.7100  114.0100 C.2     1  UNK01       0.0000
      8 C8        -13.5300  206.4900  113.0300 C.2     1  UNK01       0.0000
      9 C9        -13.3100  206.7100  111.6500 C.2     1  UNK01       0.0000
     10 C10       -12.0700  207.1700  111.2800 C.2     1  UNK01       0.0000
     11 N1        -11.4000  207.4600  109.8900 N.am    1  UNK01       0.0000
     12 C11        -9.9400  207.8800  110.0800 C.2     1  UNK01       0.0000
     13 O1         -9.1200  208.1500  109.2300 O.2     1  UNK01       0.0000
     14 F1        -12.8600  206.4200  115.2800 F       1  UNK01       0.0000
     15 C12        -7.2500  208.2100  112.0800 C.2     1  UNK01       0.0000
     16 C13        -5.9400  208.1900  112.8000 C.2     1  UNK01       0.0000
     17 C14        -4.7700  208.3900  111.7100 C.2     1  UNK01       0.0000
     18 C15        -5.4300  208.5300  110.3800 C.2     1  UNK01       0.0000
     19 N2         -6.9100  208.4400  110.6200 N.pl3   1  UNK01       0.0000
     20 C16        -9.2600  206.1200  116.2600 C.3     1  UNK01       0.0000
     21 O2        -10.1900  207.1400  115.8700 O.2     1  UNK01       0.0000
@<TRIPOS>BOND
     1     1     2    2
     2     1     6    1
     3     1    21    1
     4     2     3    1
     5     3     4    2
     6     3    15    1
     7     4     5    1
     8     4    12    1
     9     5     6    2
    10     5    10    1
    11     6     7    1
    12     7     8    2
    13     7    14    1
    14     8     9    1
    15     9    10    2
    16    10    11    1
    17    11    12   am
    18    12    13    2
    19    15    16    2
    20    15    19    1
    21    16    17    1
    22    17    18    2
    23    18    19    1
    24    20    21    1
