step2_200_2000_5.0_86398.xyz.gro
  PyMOL2.5          3D                             0

 21 24  0  0  0  0  0  0  0  0999 V2000
  -12.8099  206.6228  115.2202 C   0  0  0  0  0  0  0  0  0  0  0  0
  -11.6296  207.0823  115.8899 C   0  0  0  0  0  0  0  0  0  0  0  0
  -10.4397  207.4820  115.2196 C   0  0  0  0  0  0  0  0  0  0  0  0
  -10.4601  207.4121  113.8296 C   0  0  0  0  0  0  0  0  0  0  0  0
  -11.7205  206.9026  113.1499 C   0  0  0  0  0  0  0  0  0  0  0  0
  -12.8704  206.5129  113.8002 C   0  0  0  0  0  0  0  0  0  0  0  0
  -13.9208  206.1333  112.9305 C   0  0  0  0  0  0  0  0  0  0  0  0
  -13.8212  206.2034  111.5205 C   0  0  0  0  0  0  0  0  0  0  0  0
  -12.6612  206.6531  110.8502 C   0  0  0  0  0  0  0  0  0  0  0  0
  -11.5809  207.0127  111.6399 C   0  0  0  0  0  0  0  0  0  0  0  0
  -10.1808  207.6322  111.3195 N   0  0  0  0  0  0  0  0  0  0  0  0
   -9.4203  207.9019  112.6193 C   0  0  0  0  0  0  0  0  0  0  0  0
   -9.2293  207.8216  115.9792 C   0  0  0  0  0  0  0  0  0  0  0  0
   -8.8989  207.6213  117.4191 C   0  0  0  0  0  0  0  0  0  0  0  0
   -7.3188  207.8708  117.5887 C   0  0  0  0  0  0  0  0  0  0  0  0
   -6.7791  208.2808  116.2685 C   0  0  0  0  0  0  0  0  0  0  0  0
   -7.9494  208.2412  115.3089 N   0  0  0  0  0  0  0  0  0  0  0  0
   -8.3501  208.4615  112.8090 O   0  0  0  0  0  0  0  0  0  0  0  0
  -15.1107  205.7536  113.4309 F1  0  0  0  0  0  0  0  0  0  0  0  0
  -14.0293  206.7130  117.2506 C   0  0  0  0  0  0  0  0  0  0  0  0
  -13.9698  206.2431  115.9105 O   0  0  0  0  0  0  0  0  0  0  0  0
  1  2  1  0  0  0  0
  1  6  1  0  0  0  0
  1 21  1  0  0  0  0
  2  3  1  0  0  0  0
  3  4  1  0  0  0  0
  3 13  1  0  0  0  0
  4  5  1  0  0  0  0
  4 12  1  0  0  0  0
  5  6  1  0  0  0  0
  5 10  1  0  0  0  0
  6  7  1  0  0  0  0
  7  8  1  0  0  0  0
  7 19  1  0  0  0  0
  8  9  1  0  0  0  0
  9 10  1  0  0  0  0
 10 11  1  0  0  0  0
 11 12  1  0  0  0  0
 12 18  1  0  0  0  0
 13 14  1  0  0  0  0
 13 17  1  0  0  0  0
 14 15  1  0  0  0  0
 15 16  1  0  0  0  0
 16 17  1  0  0  0  0
 20 21  1  0  0  0  0
M  END
$$$$
