# created with PyMOL 2.5.0
@<TRIPOS>MOLECULE
ZINC00003491
32 35 1                 
SMALL
USER_CHARGES
@<TRIPOS>ATOM
1	 H04	-8.430	207.710	110.170	 H	1	UNK0	0.000	
2	 H06	0.160	206.750	111.140	 H	1	UNK0	0.000	
3	 H09	-3.400	207.090	116.890	 H	1	UNK0	0.000	
4	 H03	-10.290	207.930	112.600	 H	1	UNK0	0.000	
5	 H11	-4.580	205.770	116.530	 H	1	UNK0	0.000	
6	 H08	-4.000	207.820	110.110	 H	1	UNK0	0.000	
7	 H01	-3.370	207.480	114.820	 H	1	UNK0	0.000	
8	 H02	-10.240	207.960	115.120	 H	1	UNK0	0.000	
9	 H07	-1.590	207.540	109.020	 H	1	UNK0	0.000	
10	 H10	-4.570	206.570	118.110	 H	1	UNK0	0.000	
11	 H05	-1.490	206.640	113.530	 H	1	UNK0	0.000	
12	  C1	-5.520	207.640	115.220	C.2	1	UNK0	0.000	
13	  C2	-4.360	207.510	114.370	C.2	1	UNK0	0.000	
14	  C3	-4.420	207.460	112.970	C.2	1	UNK0	0.000	
15	  C4	-5.670	207.610	112.380	C.2	1	UNK0	0.000	
16	  C5	-6.880	207.760	113.300	C.2	1	UNK0	0.000	
17	  C6	-6.820	207.770	114.660	C.2	1	UNK0	0.000	
18	  C7	-8.100	207.860	115.300	C.2	1	UNK0	0.000	
19	  C8	-9.310	207.910	114.550	C.2	1	UNK0	0.000	
20	  C9	-9.370	207.890	113.150	C.2	1	UNK0	0.000	
21	 C10	-8.150	207.820	112.480	C.2	1	UNK0	0.000	
22	  N1	-7.770	207.700	110.960	N.pl3	1	UNK0	0.000	
23	 C11	-6.260	207.570	110.820	C.2	1	UNK0	0.000	
24	  O1	-5.580	207.390	109.810	O.2	1	UNK0	0.000	
25	  F1	-8.180	207.880	116.630	 F	1	UNK0	0.000	
26	 C12	-3.210	207.280	112.130	C.2	1	UNK0	0.000	
27	 C13	-1.830	206.890	112.530	C.2	1	UNK0	0.000	
28	 C14	-0.920	206.940	111.200	C.2	1	UNK0	0.000	
29	 C15	-1.800	207.330	110.070	C.2	1	UNK0	0.000	
30	  N2	-3.160	207.530	110.650	N.pl3	1	UNK0	0.000	
31	 C16	-4.420	206.730	117.050	C.3	1	UNK0	0.000	
32	  O2	-5.370	207.690	116.580	O.3	1	UNK0	0.000	
@<TRIPOS>BOND
1 12 13 2
2 12 17 1
3 12 32 1
4 7 13 1
5 13 14 1
6 14 15 2
7 14 26 1
8 15 16 1
9 15 23 1
10 16 17 2
11 16 21 1
12 17 18 1
13 18 19 2
14 18 25 1
15 8 19 1
16 19 20 1
17 4 20 1
18 20 21 2
19 21 22 1
20 1 22 1
21 22 23 1
22 23 24 2
23 26 27 2
24 26 30 1
25 11 27 1
26 27 28 1
27 2 28 1
28 28 29 2
29 9 29 1
30 29 30 1
31 6 30 1
32 3 31 1
33 5 31 1
34 10 31 1
35 31 32 1
@<TRIPOS>SUBSTRUCTURE
1	UNK0	1	GROUP	1 ****	UNK
