step2_200_2000_5.0_22633.xyz.gro
  PyMOL2.5          3D                             0

 21 24  0  0  0  0  0  0  0  0999 V2000
  -11.5683  205.1104  116.4918 C   0  0  0  0  0  0  0  0  0  0  0  0
  -10.5080  206.0302  116.6814 C   0  0  0  0  0  0  0  0  0  0  0  0
   -9.9980  206.8699  115.6612 C   0  0  0  0  0  0  0  0  0  0  0  0
  -10.6582  206.8098  114.4313 C   0  0  0  0  0  0  0  0  0  0  0  0
  -11.7684  205.7900  114.2617 C   0  0  0  0  0  0  0  0  0  0  0  0
  -12.2085  204.9203  115.2419 C   0  0  0  0  0  0  0  0  0  0  0  0
  -13.1488  203.9705  114.7923 C   0  0  0  0  0  0  0  0  0  0  0  0
  -13.6190  203.9203  113.4524 C   0  0  0  0  0  0  0  0  0  0  0  0
  -13.1690  204.8000  112.4421 C   0  0  0  0  0  0  0  0  0  0  0  0
  -12.2387  205.7398  112.8118 C   0  0  0  0  0  0  0  0  0  0  0  0
  -11.3885  206.7894  112.0014 N   0  0  0  0  0  0  0  0  0  0  0  0
  -10.4082  207.4894  112.9311 C   0  0  0  0  0  0  0  0  0  0  0  0
   -8.7678  207.5996  115.8809 C   0  0  0  0  0  0  0  0  0  0  0  0
   -7.8176  207.5696  117.0307 C   0  0  0  0  0  0  0  0  0  0  0  0
   -6.5074  208.4092  116.6004 C   0  0  0  0  0  0  0  0  0  0  0  0
   -6.7275  208.9089  115.2203 C   0  0  0  0  0  0  0  0  0  0  0  0
   -8.0877  208.4192  114.8006 N   0  0  0  0  0  0  0  0  0  0  0  0
   -9.5080  208.2691  112.6508 O   0  0  0  0  0  0  0  0  0  0  0  0
  -13.5490  202.9808  115.6225 F1  0  0  0  0  0  0  0  0  0  0  0  0
  -13.1281  204.8512  118.1221 C   0  0  0  0  0  0  0  0  0  0  0  0
  -11.8984  204.3308  117.6020 O   0  0  0  0  0  0  0  0  0  0  0  0
  1  2  1  0  0  0  0
  1  6  1  0  0  0  0
  1 21  1  0  0  0  0
  2  3  1  0  0  0  0
  3  4  1  0  0  0  0
  3 13  1  0  0  0  0
  4  5  1  0  0  0  0
  4 12  1  0  0  0  0
  5  6  1  0  0  0  0
  5 10  1  0  0  0  0
  6  7  1  0  0  0  0
  7  8  1  0  0  0  0
  7 19  1  0  0  0  0
  8  9  1  0  0  0  0
  9 10  1  0  0  0  0
 10 11  1  0  0  0  0
 11 12  1  0  0  0  0
 12 18  1  0  0  0  0
 13 14  1  0  0  0  0
 13 17  1  0  0  0  0
 14 15  1  0  0  0  0
 15 16  1  0  0  0  0
 16 17  1  0  0  0  0
 20 21  1  0  0  0  0
M  END
$$$$
