step2_200_2000_5.0_77285.xyz.gro
  PyMOL2.5          3D                             0

 21 24  0  0  0  0  0  0  0  0999 V2000
  -10.6751  205.8090  114.3232 C   0  0  0  0  0  0  0  0  0  0  0  0
   -9.3752  206.1789  113.8930 C   0  0  0  0  0  0  0  0  0  0  0  0
   -9.0454  206.5391  112.5630 C   0  0  0  0  0  0  0  0  0  0  0  0
  -10.1056  206.5494  111.6532 C   0  0  0  0  0  0  0  0  0  0  0  0
  -11.4855  206.1495  112.1534 C   0  0  0  0  0  0  0  0  0  0  0  0
  -11.7753  205.7693  113.4334 C   0  0  0  0  0  0  0  0  0  0  0  0
  -13.1353  205.4094  113.6436 C   0  0  0  0  0  0  0  0  0  0  0  0
  -14.1055  205.4397  112.6038 C   0  0  0  0  0  0  0  0  0  0  0  0
  -13.7958  205.8199  111.2738 C   0  0  0  0  0  0  0  0  0  0  0  0
  -12.4858  206.1797  111.0136 C   0  0  0  0  0  0  0  0  0  0  0  0
  -11.7360  206.6199  109.7036 N   0  0  0  0  0  0  0  0  0  0  0  0
  -10.2459  206.8597  110.0233 C   0  0  0  0  0  0  0  0  0  0  0  0
   -7.6654  206.8290  112.2328 C   0  0  0  0  0  0  0  0  0  0  0  0
   -6.4253  206.7287  113.0625 C   0  0  0  0  0  0  0  0  0  0  0  0
   -5.1954  207.2787  112.1824 C   0  0  0  0  0  0  0  0  0  0  0  0
   -5.7356  207.6590  110.8525 C   0  0  0  0  0  0  0  0  0  0  0  0
   -7.2256  207.3991  110.8928 N   0  0  0  0  0  0  0  0  0  0  0  0
   -9.3560  207.1597  109.2532 O   0  0  0  0  0  0  0  0  0  0  0  0
  -13.5451  204.9993  114.8537 F1  0  0  0  0  0  0  0  0  0  0  0  0
  -10.4146  206.3386  116.5532 C   0  0  0  0  0  0  0  0  0  0  0  0
  -10.8449  205.3388  115.6232 O   0  0  0  0  0  0  0  0  0  0  0  0
  1  2  1  0  0  0  0
  1  6  1  0  0  0  0
  1 21  1  0  0  0  0
  2  3  1  0  0  0  0
  3  4  1  0  0  0  0
  3 13  1  0  0  0  0
  4  5  1  0  0  0  0
  4 12  1  0  0  0  0
  5  6  1  0  0  0  0
  5 10  1  0  0  0  0
  6  7  1  0  0  0  0
  7  8  1  0  0  0  0
  7 19  1  0  0  0  0
  8  9  1  0  0  0  0
  9 10  1  0  0  0  0
 10 11  1  0  0  0  0
 11 12  1  0  0  0  0
 12 18  1  0  0  0  0
 13 14  1  0  0  0  0
 13 17  1  0  0  0  0
 14 15  1  0  0  0  0
 15 16  1  0  0  0  0
 16 17  1  0  0  0  0
 20 21  1  0  0  0  0
M  END
$$$$
