step2_200_2000_5.0_21878.xyz.gro
  PyMOL2.5          3D                             0

 21 24  0  0  0  0  0  0  0  0999 V2000
  -11.1017  206.6699  115.5703 C   0  0  0  0  0  0  0  0  0  0  0  0
   -9.6917  206.8599  115.5101 C   0  0  0  0  0  0  0  0  0  0  0  0
   -8.9519  206.7900  114.3100 C   0  0  0  0  0  0  0  0  0  0  0  0
   -9.6720  206.5301  113.1401 C   0  0  0  0  0  0  0  0  0  0  0  0
  -11.1720  206.2901  113.2702 C   0  0  0  0  0  0  0  0  0  0  0  0
  -11.8819  206.3501  114.4403 C   0  0  0  0  0  0  0  0  0  0  0  0
  -13.2519  206.0201  114.3005 C   0  0  0  0  0  0  0  0  0  0  0  0
  -13.8420  205.6602  113.0605 C   0  0  0  0  0  0  0  0  0  0  0  0
  -13.1022  205.6003  111.8504 C   0  0  0  0  0  0  0  0  0  0  0  0
  -11.7622  205.9103  111.9203 C   0  0  0  0  0  0  0  0  0  0  0  0
  -10.6023  205.9203  110.8501 N   0  0  0  0  0  0  0  0  0  0  0  0
   -9.2822  206.2903  111.5400 C   0  0  0  0  0  0  0  0  0  0  0  0
   -7.5118  206.9400  114.3398 C   0  0  0  0  0  0  0  0  0  0  0  0
   -6.5617  206.9598  115.4997 C   0  0  0  0  0  0  0  0  0  0  0  0
   -5.0818  207.1698  114.9096 C   0  0  0  0  0  0  0  0  0  0  0  0
   -5.1920  207.2600  113.4296 C   0  0  0  0  0  0  0  0  0  0  0  0
   -6.6520  207.1101  113.1097 N   0  0  0  0  0  0  0  0  0  0  0  0
   -8.1623  206.3403  111.0499 O   0  0  0  0  0  0  0  0  0  0  0  0
  -14.0517  205.9900  115.3906 F1  0  0  0  0  0  0  0  0  0  0  0  0
  -12.2215  207.9898  117.0205 C   0  0  0  0  0  0  0  0  0  0  0  0
  -11.6515  206.6898  116.8403 O   0  0  0  0  0  0  0  0  0  0  0  0
  1  2  1  0  0  0  0
  1  6  1  0  0  0  0
  1 21  1  0  0  0  0
  2  3  1  0  0  0  0
  3  4  1  0  0  0  0
  3 13  1  0  0  0  0
  4  5  1  0  0  0  0
  4 12  1  0  0  0  0
  5  6  1  0  0  0  0
  5 10  1  0  0  0  0
  6  7  1  0  0  0  0
  7  8  1  0  0  0  0
  7 19  1  0  0  0  0
  8  9  1  0  0  0  0
  9 10  1  0  0  0  0
 10 11  1  0  0  0  0
 11 12  1  0  0  0  0
 12 18  1  0  0  0  0
 13 14  1  0  0  0  0
 13 17  1  0  0  0  0
 14 15  1  0  0  0  0
 15 16  1  0  0  0  0
 16 17  1  0  0  0  0
 20 21  1  0  0  0  0
M  END
$$$$
