@<TRIPOS>MOLECULE
ZINC00003491
 21 24 0 0 0
SMALL
USER_CHARGES

@<TRIPOS>ATOM
      1 C1        -12.0100  205.5000  115.5100 C.2     1  UNK01       0.0000
      2 C2        -10.8000  206.2300  115.4300 C.2     1  UNK01       0.0000
      3 C3        -10.3300  206.8700  114.2500 C.2     1  UNK01       0.0000
      4 C4        -11.1700  206.7800  113.1200 C.2     1  UNK01       0.0000
      5 C5        -12.4400  205.9600  113.2600 C.2     1  UNK01       0.0000
      6 C6        -12.8500  205.3000  114.3900 C.2     1  UNK01       0.0000
      7 C7        -14.0300  204.5200  114.2300 C.2     1  UNK01       0.0000
      8 C8        -14.7400  204.4700  113.0100 C.2     1  UNK01       0.0000
      9 C9        -14.3300  205.1400  111.8400 C.2     1  UNK01       0.0000
     10 C10       -13.1600  205.8800  111.9300 C.2     1  UNK01       0.0000
     11 N1        -12.3400  206.6800  110.8700 N.am    1  UNK01       0.0000
     12 C11       -11.0900  207.2800  111.5200 C.2     1  UNK01       0.0000
     13 O1        -10.2300  207.9400  110.9600 O.2     1  UNK01       0.0000
     14 F1        -14.4600  203.7400  115.2300 F       1  UNK01       0.0000
     15 C12        -9.0100  207.4600  114.2600 C.2     1  UNK01       0.0000
     16 C13        -8.3300  208.4200  113.3500 C.2     1  UNK01       0.0000
     17 C14        -6.7700  208.4700  113.7600 C.2     1  UNK01       0.0000
     18 C15        -6.5900  207.5500  114.9200 C.2     1  UNK01       0.0000
     19 N2         -7.9400  206.9500  115.2000 N.pl3   1  UNK01       0.0000
     20 C16       -13.3300  205.7800  117.3300 C.3     1  UNK01       0.0000
     21 O2        -12.3000  204.9600  116.7500 O.2     1  UNK01       0.0000
@<TRIPOS>BOND
     1     1     2    2
     2     1     6    1
     3     1    21    1
     4     2     3    1
     5     3     4    2
     6     3    15    1
     7     4     5    1
     8     4    12    1
     9     5     6    2
    10     5    10    1
    11     6     7    1
    12     7     8    2
    13     7    14    1
    14     8     9    1
    15     9    10    2
    16    10    11    1
    17    11    12   am
    18    12    13    2
    19    15    16    2
    20    15    19    1
    21    16    17    1
    22    17    18    2
    23    18    19    1
    24    20    21    1
