step2_200_2000_5.0_2177.xyz.gro
  PyMOL2.5          3D                             0

 21 24  0  0  0  0  0  0  0  0999 V2000
  -11.6106  206.4199  115.7528 C   0  0  0  0  0  0  0  0  0  0  0  0
  -10.2204  206.4884  116.0420 C   0  0  0  0  0  0  0  0  0  0  0  0
   -9.2209  206.5678  115.0414 C   0  0  0  0  0  0  0  0  0  0  0  0
   -9.6717  206.5585  113.7117 C   0  0  0  0  0  0  0  0  0  0  0  0
  -11.1619  206.5100  113.4626 C   0  0  0  0  0  0  0  0  0  0  0  0
  -12.1314  206.4407  114.4432 C   0  0  0  0  0  0  0  0  0  0  0  0
  -13.4518  206.3921  113.9440 C   0  0  0  0  0  0  0  0  0  0  0  0
  -13.7526  206.3928  112.5542 C   0  0  0  0  0  0  0  0  0  0  0  0
  -12.7632  206.4421  111.5435 C   0  0  0  0  0  0  0  0  0  0  0  0
  -11.4429  206.4907  111.9827 C   0  0  0  0  0  0  0  0  0  0  0  0
  -10.0733  206.5195  111.2119 N   0  0  0  0  0  0  0  0  0  0  0  0
   -8.9226  206.5682  112.2212 C   0  0  0  0  0  0  0  0  0  0  0  0
   -7.8206  206.6163  115.4106 C   0  0  0  0  0  0  0  0  0  0  0  0
   -7.1599  206.5253  116.7501 C   0  0  0  0  0  0  0  0  0  0  0  0
   -5.5600  206.5538  116.5191 C   0  0  0  0  0  0  0  0  0  0  0  0
   -5.3408  206.6540  115.0490 C   0  0  0  0  0  0  0  0  0  0  0  0
   -6.7012  206.6855  114.3999 N   0  0  0  0  0  0  0  0  0  0  0  0
   -7.7127  206.6071  112.0105 O   0  0  0  0  0  0  0  0  0  0  0  0
  -14.4913  206.3329  114.7946 F1  0  0  0  0  0  0  0  0  0  0  0  0
  -12.4511  204.9303  117.2330 C   0  0  0  0  0  0  0  0  0  0  0  0
  -12.4701  206.3104  116.8333 O   0  0  0  0  0  0  0  0  0  0  0  0
  1  2  1  0  0  0  0
  1  6  1  0  0  0  0
  1 21  1  0  0  0  0
  2  3  1  0  0  0  0
  3  4  1  0  0  0  0
  3 13  1  0  0  0  0
  4  5  1  0  0  0  0
  4 12  1  0  0  0  0
  5  6  1  0  0  0  0
  5 10  1  0  0  0  0
  6  7  1  0  0  0  0
  7  8  1  0  0  0  0
  7 19  1  0  0  0  0
  8  9  1  0  0  0  0
  9 10  1  0  0  0  0
 10 11  1  0  0  0  0
 11 12  1  0  0  0  0
 12 18  1  0  0  0  0
 13 14  1  0  0  0  0
 13 17  1  0  0  0  0
 14 15  1  0  0  0  0
 15 16  1  0  0  0  0
 16 17  1  0  0  0  0
 20 21  1  0  0  0  0
M  END
$$$$
