# created with PyMOL 2.5.0
@<TRIPOS>MOLECULE
ZINC00003491
32 35 1                 
SMALL
USER_CHARGES
@<TRIPOS>ATOM
1	 H04	-9.950	206.510	110.200	 H	1	UNK0	0.000	
2	 H06	-4.760	206.520	117.290	 H	1	UNK0	0.000	
3	 H09	-11.440	204.660	117.650	 H	1	UNK0	0.000	
4	 H03	-12.970	206.470	110.510	 H	1	UNK0	0.000	
5	 H11	-13.160	204.810	118.050	 H	1	UNK0	0.000	
6	 H08	-6.830	206.730	113.420	 H	1	UNK0	0.000	
7	 H01	-9.890	206.490	117.100	 H	1	UNK0	0.000	
8	 H02	-14.770	206.360	112.280	 H	1	UNK0	0.000	
9	 H07	-4.400	206.720	114.480	 H	1	UNK0	0.000	
10	 H10	-12.690	204.280	116.420	 H	1	UNK0	0.000	
11	 H05	-7.640	206.460	117.720	 H	1	UNK0	0.000	
12	  C1	-11.580	206.430	115.770	C.2	1	UNK0	0.000	
13	  C2	-10.190	206.500	116.060	C.2	1	UNK0	0.000	
14	  C3	-9.190	206.580	115.060	C.2	1	UNK0	0.000	
15	  C4	-9.640	206.570	113.730	C.2	1	UNK0	0.000	
16	  C5	-11.130	206.520	113.480	C.2	1	UNK0	0.000	
17	  C6	-12.100	206.450	114.460	C.2	1	UNK0	0.000	
18	  C7	-13.420	206.400	113.960	C.2	1	UNK0	0.000	
19	  C8	-13.720	206.400	112.570	C.2	1	UNK0	0.000	
20	  C9	-12.730	206.450	111.560	C.2	1	UNK0	0.000	
21	 C10	-11.410	206.500	112.000	C.2	1	UNK0	0.000	
22	  N1	-10.040	206.530	111.230	N.pl3	1	UNK0	0.000	
23	 C11	-8.890	206.580	112.240	C.2	1	UNK0	0.000	
24	  O1	-7.680	206.620	112.030	O.2	1	UNK0	0.000	
25	  F1	-14.460	206.340	114.810	 F	1	UNK0	0.000	
26	 C12	-7.790	206.630	115.430	C.2	1	UNK0	0.000	
27	 C13	-7.130	206.540	116.770	C.2	1	UNK0	0.000	
28	 C14	-5.530	206.570	116.540	C.2	1	UNK0	0.000	
29	 C15	-5.310	206.670	115.070	C.2	1	UNK0	0.000	
30	  N2	-6.670	206.700	114.420	N.pl3	1	UNK0	0.000	
31	 C16	-12.420	204.940	117.250	C.3	1	UNK0	0.000	
32	  O2	-12.440	206.320	116.850	O.3	1	UNK0	0.000	
@<TRIPOS>BOND
1 12 13 2
2 12 17 1
3 12 32 1
4 7 13 1
5 13 14 1
6 14 15 2
7 14 26 1
8 15 16 1
9 15 23 1
10 16 17 2
11 16 21 1
12 17 18 1
13 18 19 2
14 18 25 1
15 8 19 1
16 19 20 1
17 4 20 1
18 20 21 2
19 21 22 1
20 1 22 1
21 22 23 1
22 23 24 2
23 26 27 2
24 26 30 1
25 11 27 1
26 27 28 1
27 2 28 1
28 28 29 2
29 9 29 1
30 29 30 1
31 6 30 1
32 3 31 1
33 5 31 1
34 10 31 1
35 31 32 1
@<TRIPOS>SUBSTRUCTURE
1	UNK0	1	GROUP	1 ****	UNK
