# created with PyMOL 2.5.0
@<TRIPOS>MOLECULE
ZINC00003491
32 35 1                 
SMALL
USER_CHARGES
@<TRIPOS>ATOM
1	 H04	-11.820	207.270	108.980	 H	1	UNK0	0.000	
2	 H06	-3.710	208.460	111.900	 H	1	UNK0	0.000	
3	 H09	-8.250	206.530	116.330	 H	1	UNK0	0.000	
4	 H03	-14.080	206.510	110.900	 H	1	UNK0	0.000	
5	 H11	-9.290	205.270	115.570	 H	1	UNK0	0.000	
6	 H08	-7.610	208.530	109.890	 H	1	UNK0	0.000	
7	 H01	-7.990	207.910	114.640	 H	1	UNK0	0.000	
8	 H02	-14.500	206.120	113.360	 H	1	UNK0	0.000	
9	 H07	-5.040	208.750	109.400	 H	1	UNK0	0.000	
10	 H10	-9.550	205.760	117.250	 H	1	UNK0	0.000	
11	 H05	-5.810	208.080	113.870	 H	1	UNK0	0.000	
12	  C1	-10.080	207.350	114.500	C.2	1	UNK0	0.000	
13	  C2	-8.820	207.750	113.960	C.2	1	UNK0	0.000	
14	  C3	-8.590	207.970	112.580	C.2	1	UNK0	0.000	
15	  C4	-9.700	207.830	111.740	C.2	1	UNK0	0.000	
16	  C5	-11.020	207.400	112.360	C.2	1	UNK0	0.000	
17	  C6	-11.230	207.160	113.690	C.2	1	UNK0	0.000	
18	  C7	-12.530	206.710	114.010	C.2	1	UNK0	0.000	
19	  C8	-13.530	206.490	113.030	C.2	1	UNK0	0.000	
20	  C9	-13.310	206.710	111.650	C.2	1	UNK0	0.000	
21	 C10	-12.070	207.170	111.280	C.2	1	UNK0	0.000	
22	  N1	-11.400	207.460	109.890	N.pl3	1	UNK0	0.000	
23	 C11	-9.940	207.880	110.080	C.2	1	UNK0	0.000	
24	  O1	-9.120	208.150	109.230	O.2	1	UNK0	0.000	
25	  F1	-12.860	206.420	115.280	 F	1	UNK0	0.000	
26	 C12	-7.250	208.210	112.080	C.2	1	UNK0	0.000	
27	 C13	-5.940	208.190	112.800	C.2	1	UNK0	0.000	
28	 C14	-4.770	208.390	111.710	C.2	1	UNK0	0.000	
29	 C15	-5.430	208.530	110.380	C.2	1	UNK0	0.000	
30	  N2	-6.910	208.440	110.620	N.pl3	1	UNK0	0.000	
31	 C16	-9.260	206.120	116.260	C.3	1	UNK0	0.000	
32	  O2	-10.190	207.140	115.870	O.3	1	UNK0	0.000	
@<TRIPOS>BOND
1 12 13 2
2 12 17 1
3 12 32 1
4 7 13 1
5 13 14 1
6 14 15 2
7 14 26 1
8 15 16 1
9 15 23 1
10 16 17 2
11 16 21 1
12 17 18 1
13 18 19 2
14 18 25 1
15 8 19 1
16 19 20 1
17 4 20 1
18 20 21 2
19 21 22 1
20 1 22 1
21 22 23 1
22 23 24 2
23 26 27 2
24 26 30 1
25 11 27 1
26 27 28 1
27 2 28 1
28 28 29 2
29 9 29 1
30 29 30 1
31 6 30 1
32 3 31 1
33 5 31 1
34 10 31 1
35 31 32 1
@<TRIPOS>SUBSTRUCTURE
1	UNK0	1	GROUP	1 ****	UNK
