step2_200_2000_5.0_13001.xyz.gro
  PyMOL2.5          3D                             0

 21 24  0  0  0  0  0  0  0  0999 V2000
  -10.9657  206.5924  115.5027 C   0  0  0  0  0  0  0  0  0  0  0  0
   -9.6356  207.0022  115.2826 C   0  0  0  0  0  0  0  0  0  0  0  0
   -9.1158  207.3528  114.0127 C   0  0  0  0  0  0  0  0  0  0  0  0
  -10.0060  207.2735  112.9328 C   0  0  0  0  0  0  0  0  0  0  0  0
  -11.4160  206.7836  113.2129 C   0  0  0  0  0  0  0  0  0  0  0  0
  -11.9159  206.4631  114.4528 C   0  0  0  0  0  0  0  0  0  0  0  0
  -13.2760  206.0734  114.4628 C   0  0  0  0  0  0  0  0  0  0  0  0
  -14.0662  206.0242  113.2830 C   0  0  0  0  0  0  0  0  0  0  0  0
  -13.5664  206.3547  112.0030 C   0  0  0  0  0  0  0  0  0  0  0  0
  -12.2363  206.7445  111.9330 C   0  0  0  0  0  0  0  0  0  0  0  0
  -11.3264  207.2349  110.7531 N   0  0  0  0  0  0  0  0  0  0  0  0
   -9.9362  207.5743  111.2830 C   0  0  0  0  0  0  0  0  0  0  0  0
   -7.7457  207.7925  113.9227 C   0  0  0  0  0  0  0  0  0  0  0  0
   -7.0457  208.6828  112.9430 C   0  0  0  0  0  0  0  0  0  0  0  0
   -5.5056  208.8123  113.4128 C   0  0  0  0  0  0  0  0  0  0  0  0
   -5.3455  207.9916  114.6524 C   0  0  0  0  0  0  0  0  0  0  0  0
   -6.6956  207.3918  114.9323 N   0  0  0  0  0  0  0  0  0  0  0  0
   -8.9862  207.9845  110.6330 O   0  0  0  0  0  0  0  0  0  0  0  0
  -13.8658  205.7330  115.6128 F1  0  0  0  0  0  0  0  0  0  0  0  0
  -11.7951  207.5116  117.3933 C   0  0  0  0  0  0  0  0  0  0  0  0
  -11.3155  206.2918  116.8026 O   0  0  0  0  0  0  0  0  0  0  0  0
  1  2  1  0  0  0  0
  1  6  1  0  0  0  0
  1 21  1  0  0  0  0
  2  3  1  0  0  0  0
  3  4  1  0  0  0  0
  3 13  1  0  0  0  0
  4  5  1  0  0  0  0
  4 12  1  0  0  0  0
  5  6  1  0  0  0  0
  5 10  1  0  0  0  0
  6  7  1  0  0  0  0
  7  8  1  0  0  0  0
  7 19  1  0  0  0  0
  8  9  1  0  0  0  0
  9 10  1  0  0  0  0
 10 11  1  0  0  0  0
 11 12  1  0  0  0  0
 12 18  1  0  0  0  0
 13 14  1  0  0  0  0
 13 17  1  0  0  0  0
 14 15  1  0  0  0  0
 15 16  1  0  0  0  0
 16 17  1  0  0  0  0
 20 21  1  0  0  0  0
M  END
$$$$
