# created with PyMOL 2.5.0
@<TRIPOS>MOLECULE
ZINC00003491
32 35 1                 
SMALL
USER_CHARGES
@<TRIPOS>ATOM
1	 H04	-12.120	206.710	108.770	 H	1	UNK0	0.000	
2	 H06	-4.160	207.420	112.510	 H	1	UNK0	0.000	
3	 H09	-10.940	207.280	116.390	 H	1	UNK0	0.000	
4	 H03	-14.540	205.830	110.500	 H	1	UNK0	0.000	
5	 H11	-9.330	206.510	116.490	 H	1	UNK0	0.000	
6	 H08	-7.840	207.640	110.130	 H	1	UNK0	0.000	
7	 H01	-8.550	206.130	114.610	 H	1	UNK0	0.000	
8	 H02	-15.120	205.160	112.860	 H	1	UNK0	0.000	
9	 H07	-5.280	208.140	110.000	 H	1	UNK0	0.000	
10	 H10	-10.640	205.990	117.570	 H	1	UNK0	0.000	
11	 H05	-6.370	206.410	114.100	 H	1	UNK0	0.000	
12	  C1	-10.670	205.810	114.330	C.2	1	UNK0	0.000	
13	  C2	-9.370	206.180	113.900	C.2	1	UNK0	0.000	
14	  C3	-9.040	206.540	112.570	C.2	1	UNK0	0.000	
15	  C4	-10.100	206.550	111.660	C.2	1	UNK0	0.000	
16	  C5	-11.480	206.150	112.160	C.2	1	UNK0	0.000	
17	  C6	-11.770	205.770	113.440	C.2	1	UNK0	0.000	
18	  C7	-13.130	205.410	113.650	C.2	1	UNK0	0.000	
19	  C8	-14.100	205.440	112.610	C.2	1	UNK0	0.000	
20	  C9	-13.790	205.820	111.280	C.2	1	UNK0	0.000	
21	 C10	-12.480	206.180	111.020	C.2	1	UNK0	0.000	
22	  N1	-11.730	206.620	109.710	N.pl3	1	UNK0	0.000	
23	 C11	-10.240	206.860	110.030	C.2	1	UNK0	0.000	
24	  O1	-9.350	207.160	109.260	O.2	1	UNK0	0.000	
25	  F1	-13.540	205.000	114.860	 F	1	UNK0	0.000	
26	 C12	-7.660	206.830	112.240	C.2	1	UNK0	0.000	
27	 C13	-6.420	206.730	113.070	C.2	1	UNK0	0.000	
28	 C14	-5.190	207.280	112.190	C.2	1	UNK0	0.000	
29	 C15	-5.730	207.660	110.860	C.2	1	UNK0	0.000	
30	  N2	-7.220	207.400	110.900	N.pl3	1	UNK0	0.000	
31	 C16	-10.410	206.340	116.560	C.3	1	UNK0	0.000	
32	  O2	-10.840	205.340	115.630	O.3	1	UNK0	0.000	
@<TRIPOS>BOND
1 12 13 2
2 12 17 1
3 12 32 1
4 7 13 1
5 13 14 1
6 14 15 2
7 14 26 1
8 15 16 1
9 15 23 1
10 16 17 2
11 16 21 1
12 17 18 1
13 18 19 2
14 18 25 1
15 8 19 1
16 19 20 1
17 4 20 1
18 20 21 2
19 21 22 1
20 1 22 1
21 22 23 1
22 23 24 2
23 26 27 2
24 26 30 1
25 11 27 1
26 27 28 1
27 2 28 1
28 28 29 2
29 9 29 1
30 29 30 1
31 6 30 1
32 3 31 1
33 5 31 1
34 10 31 1
35 31 32 1
@<TRIPOS>SUBSTRUCTURE
1	UNK0	1	GROUP	1 ****	UNK
