step2_200_2000_5.0_85083.xyz.gro
  PyMOL2.5          3D                             0

 21 24  0  0  0  0  0  0  0  0999 V2000
   -9.5701  208.0926  114.1627 C   0  0  0  0  0  0  0  0  0  0  0  0
   -8.2603  208.0715  113.6021 C   0  0  0  0  0  0  0  0  0  0  0  0
   -7.9413  207.5813  112.3220 C   0  0  0  0  0  0  0  0  0  0  0  0
   -9.0320  207.0621  111.5825 C   0  0  0  0  0  0  0  0  0  0  0  0
  -10.4017  207.1232  112.1931 C   0  0  0  0  0  0  0  0  0  0  0  0
  -10.7008  207.5835  113.4532 C   0  0  0  0  0  0  0  0  0  0  0  0
  -12.0607  207.5045  113.7938 C   0  0  0  0  0  0  0  0  0  0  0  0
  -13.0715  207.0153  112.9043 C   0  0  0  0  0  0  0  0  0  0  0  0
  -12.7623  206.6351  111.5741 C   0  0  0  0  0  0  0  0  0  0  0  0
  -11.4525  206.6440  111.1935 C   0  0  0  0  0  0  0  0  0  0  0  0
  -10.7034  206.2734  109.8632 N   0  0  0  0  0  0  0  0  0  0  0  0
   -9.2032  206.4823  110.0225 C   0  0  0  0  0  0  0  0  0  0  0  0
   -6.6015  207.5703  111.8514 C   0  0  0  0  0  0  0  0  0  0  0  0
   -5.8527  206.5096  111.1011 C   0  0  0  0  0  0  0  0  0  0  0  0
   -4.3123  207.0284  110.9504 C   0  0  0  0  0  0  0  0  0  0  0  0
   -4.2310  208.3884  111.6003 C   0  0  0  0  0  0  0  0  0  0  0  0
   -5.6205  208.6895  112.1309 N   0  0  0  0  0  0  0  0  0  0  0  0
   -8.3137  206.1716  109.2521 O   0  0  0  0  0  0  0  0  0  0  0  0
  -12.4898  207.8849  115.0240 F1  0  0  0  0  0  0  0  0  0  0  0  0
   -8.9881  209.7421  115.7324 C   0  0  0  0  0  0  0  0  0  0  0  0
   -9.8091  208.5628  115.4528 O   0  0  0  0  0  0  0  0  0  0  0  0
  1  2  1  0  0  0  0
  1  6  1  0  0  0  0
  1 21  1  0  0  0  0
  2  3  1  0  0  0  0
  3  4  1  0  0  0  0
  3 13  1  0  0  0  0
  4  5  1  0  0  0  0
  4 12  1  0  0  0  0
  5  6  1  0  0  0  0
  5 10  1  0  0  0  0
  6  7  1  0  0  0  0
  7  8  1  0  0  0  0
  7 19  1  0  0  0  0
  8  9  1  0  0  0  0
  9 10  1  0  0  0  0
 10 11  1  0  0  0  0
 11 12  1  0  0  0  0
 12 18  1  0  0  0  0
 13 14  1  0  0  0  0
 13 17  1  0  0  0  0
 14 15  1  0  0  0  0
 15 16  1  0  0  0  0
 16 17  1  0  0  0  0
 20 21  1  0  0  0  0
M  END
$$$$
