# created with PyMOL 2.5.0
@<TRIPOS>MOLECULE
ZINC00003491
32 35 1                 
SMALL
USER_CHARGES
@<TRIPOS>ATOM
1	 H04	-12.580	206.760	109.870	 H	1	UNK0	0.000	
2	 H06	-5.990	209.040	113.280	 H	1	UNK0	0.000	
3	 H09	-14.240	205.780	116.720	 H	1	UNK0	0.000	
4	 H03	-14.880	205.090	110.920	 H	1	UNK0	0.000	
5	 H11	-12.970	206.810	117.460	 H	1	UNK0	0.000	
6	 H08	-8.100	206.190	115.870	 H	1	UNK0	0.000	
7	 H01	-10.200	206.300	116.330	 H	1	UNK0	0.000	
8	 H02	-15.660	203.890	112.980	 H	1	UNK0	0.000	
9	 H07	-5.710	207.250	115.470	 H	1	UNK0	0.000	
10	 H10	-13.570	205.380	118.320	 H	1	UNK0	0.000	
11	 H05	-8.790	208.990	112.560	 H	1	UNK0	0.000	
12	  C1	-12.010	205.500	115.510	C.2	1	UNK0	0.000	
13	  C2	-10.800	206.230	115.430	C.2	1	UNK0	0.000	
14	  C3	-10.330	206.870	114.250	C.2	1	UNK0	0.000	
15	  C4	-11.170	206.780	113.120	C.2	1	UNK0	0.000	
16	  C5	-12.440	205.960	113.260	C.2	1	UNK0	0.000	
17	  C6	-12.850	205.300	114.390	C.2	1	UNK0	0.000	
18	  C7	-14.030	204.520	114.230	C.2	1	UNK0	0.000	
19	  C8	-14.740	204.470	113.010	C.2	1	UNK0	0.000	
20	  C9	-14.330	205.140	111.840	C.2	1	UNK0	0.000	
21	 C10	-13.160	205.880	111.930	C.2	1	UNK0	0.000	
22	  N1	-12.340	206.680	110.870	N.pl3	1	UNK0	0.000	
23	 C11	-11.090	207.280	111.520	C.2	1	UNK0	0.000	
24	  O1	-10.230	207.940	110.960	O.2	1	UNK0	0.000	
25	  F1	-14.460	203.740	115.230	 F	1	UNK0	0.000	
26	 C12	-9.010	207.460	114.260	C.2	1	UNK0	0.000	
27	 C13	-8.330	208.420	113.350	C.2	1	UNK0	0.000	
28	 C14	-6.770	208.470	113.760	C.2	1	UNK0	0.000	
29	 C15	-6.590	207.550	114.920	C.2	1	UNK0	0.000	
30	  N2	-7.940	206.950	115.200	N.pl3	1	UNK0	0.000	
31	 C16	-13.330	205.780	117.330	C.3	1	UNK0	0.000	
32	  O2	-12.300	204.960	116.750	O.3	1	UNK0	0.000	
@<TRIPOS>BOND
1 12 13 2
2 12 17 1
3 12 32 1
4 7 13 1
5 13 14 1
6 14 15 2
7 14 26 1
8 15 16 1
9 15 23 1
10 16 17 2
11 16 21 1
12 17 18 1
13 18 19 2
14 18 25 1
15 8 19 1
16 19 20 1
17 4 20 1
18 20 21 2
19 21 22 1
20 1 22 1
21 22 23 1
22 23 24 2
23 26 27 2
24 26 30 1
25 11 27 1
26 27 28 1
27 2 28 1
28 28 29 2
29 9 29 1
30 29 30 1
31 6 30 1
32 3 31 1
33 5 31 1
34 10 31 1
35 31 32 1
@<TRIPOS>SUBSTRUCTURE
1	UNK0	1	GROUP	1 ****	UNK
