# created with PyMOL 2.5.0
@<TRIPOS>MOLECULE
ZINC00003491
32 35 1                 
SMALL
USER_CHARGES
@<TRIPOS>ATOM
1	 H04	-9.530	207.500	109.970	 H	1	UNK0	0.000	
2	 H06	-2.970	206.830	115.740	 H	1	UNK0	0.000	
3	 H09	-10.150	205.840	117.440	 H	1	UNK0	0.000	
4	 H03	-12.410	207.800	110.920	 H	1	UNK0	0.000	
5	 H11	-11.720	206.210	116.670	 H	1	UNK0	0.000	
6	 H08	-5.840	206.960	112.420	 H	1	UNK0	0.000	
7	 H01	-7.960	207.640	116.660	 H	1	UNK0	0.000	
8	 H02	-13.770	207.950	113.030	 H	1	UNK0	0.000	
9	 H07	-3.280	206.520	112.940	 H	1	UNK0	0.000	
10	 H10	-11.430	206.650	118.360	 H	1	UNK0	0.000	
11	 H05	-5.620	207.450	116.770	 H	1	UNK0	0.000	
12	  C1	-9.900	207.720	115.740	C.2	1	UNK0	0.000	
13	  C2	-8.480	207.620	115.720	C.2	1	UNK0	0.000	
14	  C3	-7.730	207.500	114.520	C.2	1	UNK0	0.000	
15	  C4	-8.450	207.520	113.330	C.2	1	UNK0	0.000	
16	  C5	-9.960	207.650	113.410	C.2	1	UNK0	0.000	
17	  C6	-10.690	207.740	114.570	C.2	1	UNK0	0.000	
18	  C7	-12.090	207.860	114.380	C.2	1	UNK0	0.000	
19	  C8	-12.690	207.870	113.090	C.2	1	UNK0	0.000	
20	  C9	-11.940	207.790	111.890	C.2	1	UNK0	0.000	
21	 C10	-10.570	207.670	112.020	C.2	1	UNK0	0.000	
22	  N1	-9.410	207.520	110.970	N.pl3	1	UNK0	0.000	
23	 C11	-8.060	207.420	111.700	C.2	1	UNK0	0.000	
24	  O1	-6.960	207.190	111.230	O.2	1	UNK0	0.000	
25	  F1	-12.920	208.000	115.420	 F	1	UNK0	0.000	
26	 C12	-6.300	207.290	114.580	C.2	1	UNK0	0.000	
27	 C13	-5.360	207.240	115.750	C.2	1	UNK0	0.000	
28	 C14	-3.890	206.900	115.180	C.2	1	UNK0	0.000	
29	 C15	-4.010	206.740	113.700	C.2	1	UNK0	0.000	
30	  N2	-5.460	206.990	113.360	N.pl3	1	UNK0	0.000	
31	 C16	-10.970	206.570	117.380	C.3	1	UNK0	0.000	
32	  O2	-10.460	207.850	117.000	O.3	1	UNK0	0.000	
@<TRIPOS>BOND
1 12 13 2
2 12 17 1
3 12 32 1
4 7 13 1
5 13 14 1
6 14 15 2
7 14 26 1
8 15 16 1
9 15 23 1
10 16 17 2
11 16 21 1
12 17 18 1
13 18 19 2
14 18 25 1
15 8 19 1
16 19 20 1
17 4 20 1
18 20 21 2
19 21 22 1
20 1 22 1
21 22 23 1
22 23 24 2
23 26 27 2
24 26 30 1
25 11 27 1
26 27 28 1
27 2 28 1
28 28 29 2
29 9 29 1
30 29 30 1
31 6 30 1
32 3 31 1
33 5 31 1
34 10 31 1
35 31 32 1
@<TRIPOS>SUBSTRUCTURE
1	UNK0	1	GROUP	1 ****	UNK
