# created with PyMOL 2.5.0
@<TRIPOS>MOLECULE
ZINC00003491
32 35 1                 
SMALL
USER_CHARGES
@<TRIPOS>ATOM
1	 H04	-10.080	208.620	113.480	 H	1	UNK0	0.000	
2	 H06	-2.890	208.060	118.370	 H	1	UNK0	0.000	
3	 H09	-9.360	206.010	120.780	 H	1	UNK0	0.000	
4	 H03	-12.660	207.130	114.290	 H	1	UNK0	0.000	
5	 H11	-8.170	204.670	120.640	 H	1	UNK0	0.000	
6	 H08	-6.620	209.590	116.610	 H	1	UNK0	0.000	
7	 H01	-7.320	205.690	119.020	 H	1	UNK0	0.000	
8	 H02	-13.510	205.540	116.010	 H	1	UNK0	0.000	
9	 H07	-4.120	210.290	117.100	 H	1	UNK0	0.000	
10	 H10	-9.770	204.380	121.340	 H	1	UNK0	0.000	
11	 H05	-4.920	205.980	118.470	 H	1	UNK0	0.000	
12	  C1	-9.380	205.510	118.320	C.2	1	UNK0	0.000	
13	  C2	-8.050	206.040	118.300	C.2	1	UNK0	0.000	
14	  C3	-7.590	206.960	117.330	C.2	1	UNK0	0.000	
15	  C4	-8.500	207.340	116.350	C.2	1	UNK0	0.000	
16	  C5	-9.900	206.750	116.400	C.2	1	UNK0	0.000	
17	  C6	-10.340	205.850	117.340	C.2	1	UNK0	0.000	
18	  C7	-11.680	205.420	117.140	C.2	1	UNK0	0.000	
19	  C8	-12.480	205.880	116.070	C.2	1	UNK0	0.000	
20	  C9	-12.020	206.790	115.090	C.2	1	UNK0	0.000	
21	 C10	-10.720	207.230	115.220	C.2	1	UNK0	0.000	
22	  N1	-9.810	208.180	114.340	N.pl3	1	UNK0	0.000	
23	 C11	-8.420	208.290	114.980	C.2	1	UNK0	0.000	
24	  O1	-7.430	208.840	114.520	O.2	1	UNK0	0.000	
25	  F1	-12.240	204.540	118.000	 F	1	UNK0	0.000	
26	 C12	-6.270	207.520	117.430	C.2	1	UNK0	0.000	
27	 C13	-5.030	206.970	118.060	C.2	1	UNK0	0.000	
28	 C14	-3.900	208.130	118.000	C.2	1	UNK0	0.000	
29	 C15	-4.510	209.310	117.340	C.2	1	UNK0	0.000	
30	  N2	-5.930	208.930	117.010	N.pl3	1	UNK0	0.000	
31	 C16	-9.230	204.940	120.580	C.3	1	UNK0	0.000	
32	  O2	-9.760	204.580	119.300	O.3	1	UNK0	0.000	
@<TRIPOS>BOND
1 12 13 2
2 12 17 1
3 12 32 1
4 7 13 1
5 13 14 1
6 14 15 2
7 14 26 1
8 15 16 1
9 15 23 1
10 16 17 2
11 16 21 1
12 17 18 1
13 18 19 2
14 18 25 1
15 8 19 1
16 19 20 1
17 4 20 1
18 20 21 2
19 21 22 1
20 1 22 1
21 22 23 1
22 23 24 2
23 26 27 2
24 26 30 1
25 11 27 1
26 27 28 1
27 2 28 1
28 28 29 2
29 9 29 1
30 29 30 1
31 6 30 1
32 3 31 1
33 5 31 1
34 10 31 1
35 31 32 1
@<TRIPOS>SUBSTRUCTURE
1	UNK0	1	GROUP	1 ****	UNK
