# created with PyMOL 2.5.0
@<TRIPOS>MOLECULE
ZINC00038397
41 42 1                 
SMALL
USER_CHARGES
@<TRIPOS>ATOM
1	 H12	8.930	13.830	24.050	 H	1	UNK0	0.000	
2	 H17	3.310	13.880	25.730	 H	1	UNK0	0.000	
3	 H01	4.820	11.550	23.100	 H	1	UNK0	0.000	
4	 H18	2.940	14.630	24.160	 H	1	UNK0	0.000	
5	 H03	2.830	6.210	22.280	 H	1	UNK0	0.000	
6	 H02	1.130	6.710	22.370	 H	1	UNK0	0.000	
7	 H06	0.660	6.910	25.570	 H	1	UNK0	0.000	
8	 H05	-0.320	7.930	24.490	 H	1	UNK0	0.000	
9	 H07	0.240	8.570	26.060	 H	1	UNK0	0.000	
10	 H04	1.870	5.830	23.730	 H	1	UNK0	0.000	
11	 H10	8.050	10.790	22.840	 H	1	UNK0	0.000	
12	 H09	5.990	6.740	21.560	 H	1	UNK0	0.000	
13	 H08	5.510	6.760	23.250	 H	1	UNK0	0.000	
14	 H11	7.950	11.370	24.510	 H	1	UNK0	0.000	
15	 H15	4.530	15.200	25.860	 H	1	UNK0	0.000	
16	 H14	6.590	16.340	26.610	 H	1	UNK0	0.000	
17	 H13	8.780	15.670	25.700	 H	1	UNK0	0.000	
18	 H16	2.430	12.960	24.490	 H	1	UNK0	0.000	
19	  N1	4.990	10.640	23.520	N.pl3	1	UNK0	0.000	
20	  C1	6.240	10.280	23.850	C.2	1	UNK0	0.000	
21	  O1	6.450	9.190	24.350	O.2	1	UNK0	0.000	
22	  C2	2.050	6.560	22.950	C.3	1	UNK0	0.000	
23	  C3	2.460	7.870	23.560	C.2	1	UNK0	0.000	
24	  C4	1.750	8.440	24.560	C.2	1	UNK0	0.000	
25	  S1	2.660	9.930	24.920	S.3	1	UNK0	0.000	
26	  C5	3.930	9.780	23.750	C.2	1	UNK0	0.000	
27	  C6	3.640	8.580	23.110	C.2	1	UNK0	0.000	
28	  C7	0.500	7.930	25.220	C.3	1	UNK0	0.000	
29	  C8	4.480	8.050	22.040	C.2	1	UNK0	0.000	
30	  O2	4.350	8.470	20.900	O.2	1	UNK0	0.000	
31	  N2	5.400	7.110	22.300	N.pl3	1	UNK0	0.000	
32	  C9	7.390	11.220	23.590	C.3	1	UNK0	0.000	
33	  O3	6.890	12.470	23.120	O.3	1	UNK0	0.000	
34	 C10	6.810	13.480	24.030	C.2	1	UNK0	0.000	
35	 C11	7.960	14.130	24.450	C.2	1	UNK0	0.000	
36	 C12	7.880	15.160	25.370	C.2	1	UNK0	0.000	
37	 C13	6.650	15.540	25.880	C.2	1	UNK0	0.000	
38	 C14	5.500	14.890	25.460	C.2	1	UNK0	0.000	
39	 C15	5.580	13.860	24.540	C.2	1	UNK0	0.000	
40	  O4	4.440	13.220	24.140	O.3	1	UNK0	0.000	
41	 C16	3.210	13.700	24.660	C.3	1	UNK0	0.000	
@<TRIPOS>BOND
1 3 19 1
2 19 20 1
3 19 26 1
4 20 21 2
5 20 32 1
6 5 22 1
7 6 22 1
8 10 22 1
9 22 23 1
10 23 24 2
11 23 27 1
12 24 25 1
13 24 28 1
14 25 26 1
15 26 27 2
16 27 29 1
17 7 28 1
18 8 28 1
19 9 28 1
20 29 30 2
21 29 31 1
22 12 31 1
23 13 31 1
24 11 32 1
25 14 32 1
26 32 33 1
27 33 34 1
28 34 35 2
29 34 39 1
30 1 35 1
31 35 36 1
32 17 36 1
33 36 37 2
34 16 37 1
35 37 38 1
36 15 38 1
37 38 39 2
38 39 40 1
39 40 41 1
40 2 41 1
41 4 41 1
42 18 41 1
@<TRIPOS>SUBSTRUCTURE
1	UNK0	1	GROUP	1 ****	UNK
