# created with PyMOL 2.5.0
@<TRIPOS>MOLECULE
ZINC00038397
41 42 1                 
SMALL
USER_CHARGES
@<TRIPOS>ATOM
1	 H12	8.780	13.840	24.210	 H	1	UNK0	0.000	
2	 H17	3.060	13.550	25.670	 H	1	UNK0	0.000	
3	 H01	4.620	11.640	23.520	 H	1	UNK0	0.000	
4	 H18	2.870	14.840	24.430	 H	1	UNK0	0.000	
5	 H03	2.280	6.140	22.000	 H	1	UNK0	0.000	
6	 H02	0.690	6.550	22.660	 H	1	UNK0	0.000	
7	 H06	0.380	7.080	25.430	 H	1	UNK0	0.000	
8	 H05	-0.460	8.460	24.700	 H	1	UNK0	0.000	
9	 H07	0.420	8.670	26.220	 H	1	UNK0	0.000	
10	 H04	1.850	5.660	23.650	 H	1	UNK0	0.000	
11	 H10	7.950	10.970	22.800	 H	1	UNK0	0.000	
12	 H09	6.040	6.880	21.570	 H	1	UNK0	0.000	
13	 H08	5.220	6.760	23.110	 H	1	UNK0	0.000	
14	 H11	7.710	11.410	24.480	 H	1	UNK0	0.000	
15	 H15	4.340	15.290	25.900	 H	1	UNK0	0.000	
16	 H14	6.380	16.270	26.820	 H	1	UNK0	0.000	
17	 H13	8.610	15.560	26.000	 H	1	UNK0	0.000	
18	 H16	2.200	13.220	24.150	 H	1	UNK0	0.000	
19	  N1	4.830	10.650	23.400	N.pl3	1	UNK0	0.000	
20	  C1	6.140	10.250	23.590	C.2	1	UNK0	0.000	
21	  O1	6.460	9.120	23.930	O.2	1	UNK0	0.000	
22	  C2	1.750	6.450	22.900	C.3	1	UNK0	0.000	
23	  C3	2.280	7.720	23.420	C.2	1	UNK0	0.000	
24	  C4	1.650	8.500	24.490	C.2	1	UNK0	0.000	
25	  S1	2.510	10.110	24.770	S.3	1	UNK0	0.000	
26	  C5	3.820	9.730	23.520	C.2	1	UNK0	0.000	
27	  C6	3.600	8.440	22.870	C.2	1	UNK0	0.000	
28	  C7	0.430	8.160	25.250	C.3	1	UNK0	0.000	
29	  C8	4.420	8.010	21.770	C.2	1	UNK0	0.000	
30	  O2	4.720	8.720	20.820	O.2	1	UNK0	0.000	
31	  N2	5.190	6.970	22.130	N.pl3	1	UNK0	0.000	
32	  C9	7.210	11.340	23.510	C.3	1	UNK0	0.000	
33	  O3	6.800	12.640	23.030	O.3	1	UNK0	0.000	
34	 C10	6.650	13.530	24.090	C.2	1	UNK0	0.000	
35	 C11	7.810	14.120	24.600	C.2	1	UNK0	0.000	
36	 C12	7.710	15.100	25.590	C.2	1	UNK0	0.000	
37	 C13	6.460	15.500	26.050	C.2	1	UNK0	0.000	
38	 C14	5.300	14.940	25.530	C.2	1	UNK0	0.000	
39	 C15	5.380	13.940	24.540	C.2	1	UNK0	0.000	
40	  O4	4.250	13.340	23.990	O.3	1	UNK0	0.000	
41	 C16	3.030	13.770	24.600	C.3	1	UNK0	0.000	
@<TRIPOS>BOND
1 3 19 1
2 19 20 1
3 19 26 1
4 20 21 2
5 20 32 1
6 5 22 1
7 6 22 1
8 10 22 1
9 22 23 1
10 23 24 2
11 23 27 1
12 24 25 1
13 24 28 1
14 25 26 1
15 26 27 2
16 27 29 1
17 7 28 1
18 8 28 1
19 9 28 1
20 29 30 2
21 29 31 1
22 12 31 1
23 13 31 1
24 11 32 1
25 14 32 1
26 32 33 1
27 33 34 1
28 34 35 2
29 34 39 1
30 1 35 1
31 35 36 1
32 17 36 1
33 36 37 2
34 16 37 1
35 37 38 1
36 15 38 1
37 38 39 2
38 39 40 1
39 40 41 1
40 2 41 1
41 4 41 1
42 18 41 1
@<TRIPOS>SUBSTRUCTURE
1	UNK0	1	GROUP	1 ****	UNK
