# created with PyMOL 2.5.0
@<TRIPOS>MOLECULE
ZINC00038397
41 42 1                 
SMALL
USER_CHARGES
@<TRIPOS>ATOM
1	 H12	7.290	14.680	25.980	 H	1	UNK0	0.000	
2	 H17	3.410	15.290	23.490	 H	1	UNK0	0.000	
3	 H01	4.560	11.550	24.870	 H	1	UNK0	0.000	
4	 H18	3.110	13.500	23.580	 H	1	UNK0	0.000	
5	 H03	4.120	6.650	20.830	 H	1	UNK0	0.000	
6	 H02	2.720	7.580	20.270	 H	1	UNK0	0.000	
7	 H06	2.400	6.600	25.230	 H	1	UNK0	0.000	
8	 H05	2.790	5.720	23.740	 H	1	UNK0	0.000	
9	 H07	1.280	6.640	23.860	 H	1	UNK0	0.000	
10	 H04	2.510	6.310	21.470	 H	1	UNK0	0.000	
11	 H10	7.350	12.980	23.620	 H	1	UNK0	0.000	
12	 H09	4.520	9.680	18.770	 H	1	UNK0	0.000	
13	 H08	4.530	8.360	19.870	 H	1	UNK0	0.000	
14	 H11	7.120	13.950	24.050	 H	1	UNK0	0.000	
15	 H15	2.700	15.700	27.530	 H	1	UNK0	0.000	
16	 H14	4.660	16.300	28.920	 H	1	UNK0	0.000	
17	 H13	6.940	15.720	28.160	 H	1	UNK0	0.000	
18	 H16	1.770	14.640	23.450	 H	1	UNK0	0.000	
19	  N1	4.830	11.310	23.930	N.pl3	1	UNK0	0.000	
20	  C1	5.920	11.970	23.380	C.2	1	UNK0	0.000	
21	  O1	6.560	11.510	22.450	O.2	1	UNK0	0.000	
22	  C2	3.180	7.110	21.140	C.3	1	UNK0	0.000	
23	  C3	3.430	8.090	22.220	C.2	1	UNK0	0.000	
24	  C4	3.020	7.820	23.600	C.2	1	UNK0	0.000	
25	  S1	3.440	9.220	24.750	S.3	1	UNK0	0.000	
26	  C5	4.250	10.180	23.390	C.2	1	UNK0	0.000	
27	  C6	4.120	9.540	22.060	C.2	1	UNK0	0.000	
28	  C7	2.340	6.630	24.140	C.3	1	UNK0	0.000	
29	  C8	4.440	10.200	20.800	C.2	1	UNK0	0.000	
30	  O2	4.380	11.400	20.610	O.2	1	UNK0	0.000	
31	  N2	4.510	9.360	19.740	N.pl3	1	UNK0	0.000	
32	  C9	6.510	13.070	24.310	C.3	1	UNK0	0.000	
33	  O3	5.400	13.990	24.220	O.3	1	UNK0	0.000	
34	 C10	5.180	14.560	25.480	C.2	1	UNK0	0.000	
35	 C11	6.270	14.870	26.300	C.2	1	UNK0	0.000	
36	 C12	6.080	15.470	27.540	C.2	1	UNK0	0.000	
37	 C13	4.800	15.790	27.970	C.2	1	UNK0	0.000	
38	 C14	3.690	15.470	27.190	C.2	1	UNK0	0.000	
39	 C15	3.870	14.870	25.930	C.2	1	UNK0	0.000	
40	  O4	2.650	14.580	25.300	O.3	1	UNK0	0.000	
41	 C16	2.770	14.490	23.880	C.3	1	UNK0	0.000	
@<TRIPOS>BOND
1 3 19 1
2 19 20 1
3 19 26 1
4 20 21 2
5 20 32 1
6 5 22 1
7 6 22 1
8 10 22 1
9 22 23 1
10 23 24 2
11 23 27 1
12 24 25 1
13 24 28 1
14 25 26 1
15 26 27 2
16 27 29 1
17 7 28 1
18 8 28 1
19 9 28 1
20 29 30 2
21 29 31 1
22 12 31 1
23 13 31 1
24 11 32 1
25 14 32 1
26 32 33 1
27 33 34 1
28 34 35 2
29 34 39 1
30 1 35 1
31 35 36 1
32 17 36 1
33 36 37 2
34 16 37 1
35 37 38 1
36 15 38 1
37 38 39 2
38 39 40 1
39 40 41 1
40 2 41 1
41 4 41 1
42 18 41 1
@<TRIPOS>SUBSTRUCTURE
1	UNK0	1	GROUP	1 ****	UNK
