# created with PyMOL 2.5.0
@<TRIPOS>MOLECULE
ZINC00038397
41 42 1                 
SMALL
USER_CHARGES
@<TRIPOS>ATOM
1	 H12	7.850	14.810	24.730	 H	1	UNK0	0.000	
2	 H17	1.720	12.680	25.550	 H	1	UNK0	0.000	
3	 H01	4.020	11.260	25.010	 H	1	UNK0	0.000	
4	 H18	2.210	13.770	26.860	 H	1	UNK0	0.000	
5	 H03	1.840	5.590	22.760	 H	1	UNK0	0.000	
6	 H02	2.000	5.050	24.440	 H	1	UNK0	0.000	
7	 H06	0.510	6.480	26.220	 H	1	UNK0	0.000	
8	 H05	-0.170	6.650	24.590	 H	1	UNK0	0.000	
9	 H07	-0.310	7.980	25.750	 H	1	UNK0	0.000	
10	 H04	3.430	5.170	23.430	 H	1	UNK0	0.000	
11	 H10	7.460	11.470	25.690	 H	1	UNK0	0.000	
12	 H09	5.180	6.960	21.030	 H	1	UNK0	0.000	
13	 H08	3.740	6.490	21.840	 H	1	UNK0	0.000	
14	 H11	5.920	11.870	26.430	 H	1	UNK0	0.000	
15	 H15	3.420	15.430	26.880	 H	1	UNK0	0.000	
16	 H14	5.110	17.220	26.980	 H	1	UNK0	0.000	
17	 H13	7.330	16.920	25.910	 H	1	UNK0	0.000	
18	 H16	2.190	14.340	25.150	 H	1	UNK0	0.000	
19	  N1	4.490	10.420	24.680	N.pl3	1	UNK0	0.000	
20	  C1	5.840	10.350	24.940	C.2	1	UNK0	0.000	
21	  O1	6.450	9.290	25.120	O.2	1	UNK0	0.000	
22	  C2	2.480	5.640	23.650	C.3	1	UNK0	0.000	
23	  C3	2.640	7.040	24.090	C.2	1	UNK0	0.000	
24	  C4	1.630	7.710	24.910	C.2	1	UNK0	0.000	
25	  S1	2.080	9.460	25.330	S.3	1	UNK0	0.000	
26	  C5	3.710	9.310	24.470	C.2	1	UNK0	0.000	
27	  C6	3.880	8.030	23.760	C.2	1	UNK0	0.000	
28	  C7	0.350	7.180	25.390	C.3	1	UNK0	0.000	
29	  C8	4.930	7.830	22.790	C.2	1	UNK0	0.000	
30	  O2	5.760	8.660	22.440	O.2	1	UNK0	0.000	
31	  N2	4.700	6.830	21.910	N.pl3	1	UNK0	0.000	
32	  C9	6.410	11.640	25.480	C.3	1	UNK0	0.000	
33	  O3	6.350	12.740	24.520	O.3	1	UNK0	0.000	
34	 C10	5.960	13.890	25.170	C.2	1	UNK0	0.000	
35	 C11	6.890	14.940	25.210	C.2	1	UNK0	0.000	
36	 C12	6.580	16.120	25.860	C.2	1	UNK0	0.000	
37	 C13	5.340	16.300	26.460	C.2	1	UNK0	0.000	
38	 C14	4.380	15.280	26.390	C.2	1	UNK0	0.000	
39	 C15	4.670	14.070	25.740	C.2	1	UNK0	0.000	
40	  O4	3.750	13.030	25.640	O.3	1	UNK0	0.000	
41	 C16	2.390	13.500	25.820	C.3	1	UNK0	0.000	
@<TRIPOS>BOND
1 3 19 1
2 19 20 1
3 19 26 1
4 20 21 2
5 20 32 1
6 5 22 1
7 6 22 1
8 10 22 1
9 22 23 1
10 23 24 2
11 23 27 1
12 24 25 1
13 24 28 1
14 25 26 1
15 26 27 2
16 27 29 1
17 7 28 1
18 8 28 1
19 9 28 1
20 29 30 2
21 29 31 1
22 12 31 1
23 13 31 1
24 11 32 1
25 14 32 1
26 32 33 1
27 33 34 1
28 34 35 2
29 34 39 1
30 1 35 1
31 35 36 1
32 17 36 1
33 36 37 2
34 16 37 1
35 37 38 1
36 15 38 1
37 38 39 2
38 39 40 1
39 40 41 1
40 2 41 1
41 4 41 1
42 18 41 1
@<TRIPOS>SUBSTRUCTURE
1	UNK0	1	GROUP	1 ****	UNK
