# created with PyMOL 2.5.0
@<TRIPOS>MOLECULE
ZINC00038397
41 42 1                 
SMALL
USER_CHARGES
@<TRIPOS>ATOM
1	 H12	8.900	15.100	24.320	 H	1	UNK0	0.000	
2	 H17	2.300	15.510	23.890	 H	1	UNK0	0.000	
3	 H01	4.980	13.560	23.330	 H	1	UNK0	0.000	
4	 H18	3.010	14.770	25.330	 H	1	UNK0	0.000	
5	 H03	2.620	7.920	21.740	 H	1	UNK0	0.000	
6	 H02	1.300	8.130	22.890	 H	1	UNK0	0.000	
7	 H06	0.300	9.480	24.430	 H	1	UNK0	0.000	
8	 H05	0.630	10.870	25.480	 H	1	UNK0	0.000	
9	 H07	1.400	9.300	25.810	 H	1	UNK0	0.000	
10	 H04	2.860	7.440	23.420	 H	1	UNK0	0.000	
11	 H10	7.750	13.570	21.430	 H	1	UNK0	0.000	
12	 H09	5.260	8.240	20.240	 H	1	UNK0	0.000	
13	 H08	4.560	7.990	21.820	 H	1	UNK0	0.000	
14	 H11	8.310	13.450	23.090	 H	1	UNK0	0.000	
15	 H15	4.510	15.860	26.530	 H	1	UNK0	0.000	
16	 H14	6.570	15.940	27.820	 H	1	UNK0	0.000	
17	 H13	8.760	15.540	26.770	 H	1	UNK0	0.000	
18	 H16	3.160	16.530	25.060	 H	1	UNK0	0.000	
19	  N1	5.220	12.650	22.930	N.pl3	1	UNK0	0.000	
20	  C1	6.520	12.360	22.630	C.2	1	UNK0	0.000	
21	  O1	7.010	11.250	22.530	O.2	1	UNK0	0.000	
22	  C2	2.400	8.190	22.780	C.3	1	UNK0	0.000	
23	  C3	2.850	9.520	23.130	C.2	1	UNK0	0.000	
24	  C4	2.220	10.350	24.180	C.2	1	UNK0	0.000	
25	  S1	3.010	12.020	24.350	S.3	1	UNK0	0.000	
26	  C5	4.270	11.620	23.050	C.2	1	UNK0	0.000	
27	  C6	4.060	10.310	22.420	C.2	1	UNK0	0.000	
28	  C7	1.070	9.980	25.010	C.3	1	UNK0	0.000	
29	  C8	4.780	9.930	21.220	C.2	1	UNK0	0.000	
30	  O2	5.030	10.650	20.280	O.2	1	UNK0	0.000	
31	  N2	4.990	8.590	21.160	N.pl3	1	UNK0	0.000	
32	  C9	7.430	13.610	22.470	C.3	1	UNK0	0.000	
33	  O3	6.860	14.910	22.660	O.3	1	UNK0	0.000	
34	 C10	6.760	15.190	24.040	C.2	1	UNK0	0.000	
35	 C11	7.930	15.250	24.790	C.2	1	UNK0	0.000	
36	 C12	7.860	15.500	26.160	C.2	1	UNK0	0.000	
37	 C13	6.620	15.730	26.770	C.2	1	UNK0	0.000	
38	 C14	5.450	15.690	26.010	C.2	1	UNK0	0.000	
39	 C15	5.510	15.430	24.640	C.2	1	UNK0	0.000	
40	  O4	4.360	15.320	23.830	O.3	1	UNK0	0.000	
41	 C16	3.150	15.550	24.590	C.3	1	UNK0	0.000	
@<TRIPOS>BOND
1 3 19 1
2 19 20 1
3 19 26 1
4 20 21 2
5 20 32 1
6 5 22 1
7 6 22 1
8 10 22 1
9 22 23 1
10 23 24 2
11 23 27 1
12 24 25 1
13 24 28 1
14 25 26 1
15 26 27 2
16 27 29 1
17 7 28 1
18 8 28 1
19 9 28 1
20 29 30 2
21 29 31 1
22 12 31 1
23 13 31 1
24 11 32 1
25 14 32 1
26 32 33 1
27 33 34 1
28 34 35 2
29 34 39 1
30 1 35 1
31 35 36 1
32 17 36 1
33 36 37 2
34 16 37 1
35 37 38 1
36 15 38 1
37 38 39 2
38 39 40 1
39 40 41 1
40 2 41 1
41 4 41 1
42 18 41 1
@<TRIPOS>SUBSTRUCTURE
1	UNK0	1	GROUP	1 ****	UNK
