# created with PyMOL 2.5.0
@<TRIPOS>MOLECULE
ZINC00038397
41 42 1                 
SMALL
USER_CHARGES
@<TRIPOS>ATOM
1	 H12	7.380	14.010	24.280	 H	1	UNK0	0.000	
2	 H17	1.490	13.370	25.010	 H	1	UNK0	0.000	
3	 H01	3.960	11.370	24.560	 H	1	UNK0	0.000	
4	 H18	1.460	14.390	23.530	 H	1	UNK0	0.000	
5	 H03	2.510	5.650	26.880	 H	1	UNK0	0.000	
6	 H02	1.480	5.670	25.440	 H	1	UNK0	0.000	
7	 H06	-0.880	8.840	26.370	 H	1	UNK0	0.000	
8	 H05	-0.200	9.630	27.800	 H	1	UNK0	0.000	
9	 H07	-0.280	7.870	27.730	 H	1	UNK0	0.000	
10	 H04	0.800	6.100	27.020	 H	1	UNK0	0.000	
11	 H10	7.190	11.000	23.220	 H	1	UNK0	0.000	
12	 H09	5.280	6.490	23.170	 H	1	UNK0	0.000	
13	 H08	4.720	8.130	23.160	 H	1	UNK0	0.000	
14	 H11	6.950	11.830	24.750	 H	1	UNK0	0.000	
15	 H15	2.630	15.210	25.120	 H	1	UNK0	0.000	
16	 H14	4.440	16.580	26.060	 H	1	UNK0	0.000	
17	 H13	6.800	15.990	25.660	 H	1	UNK0	0.000	
18	 H16	0.940	12.700	23.470	 H	1	UNK0	0.000	
19	  N1	4.300	10.420	24.650	N.pl3	1	UNK0	0.000	
20	  C1	5.640	10.190	24.420	C.2	1	UNK0	0.000	
21	  O1	6.220	9.190	24.790	O.2	1	UNK0	0.000	
22	  C2	1.690	6.180	26.390	C.3	1	UNK0	0.000	
23	  C3	2.060	7.590	26.150	C.2	1	UNK0	0.000	
24	  C4	1.230	8.740	26.510	C.2	1	UNK0	0.000	
25	  S1	1.990	10.350	25.970	S.3	1	UNK0	0.000	
26	  C5	3.440	9.490	25.210	C.2	1	UNK0	0.000	
27	  C6	3.370	8.020	25.350	C.2	1	UNK0	0.000	
28	  C7	-0.110	8.770	27.140	C.3	1	UNK0	0.000	
29	  C8	4.260	7.010	24.800	C.2	1	UNK0	0.000	
30	  O2	4.430	5.930	25.330	O.2	1	UNK0	0.000	
31	  N2	4.650	7.190	23.530	N.pl3	1	UNK0	0.000	
32	  C9	6.430	11.390	23.890	C.3	1	UNK0	0.000	
33	  O3	5.670	12.370	23.130	O.3	1	UNK0	0.000	
34	 C10	5.320	13.450	23.950	C.2	1	UNK0	0.000	
35	 C11	6.340	14.250	24.480	C.2	1	UNK0	0.000	
36	 C12	6.020	15.370	25.250	C.2	1	UNK0	0.000	
37	 C13	4.680	15.710	25.470	C.2	1	UNK0	0.000	
38	 C14	3.660	14.920	24.930	C.2	1	UNK0	0.000	
39	 C15	3.960	13.790	24.160	C.2	1	UNK0	0.000	
40	  O4	2.970	12.950	23.600	O.3	1	UNK0	0.000	
41	 C16	1.650	13.390	23.930	C.3	1	UNK0	0.000	
@<TRIPOS>BOND
1 3 19 1
2 19 20 1
3 19 26 1
4 20 21 2
5 20 32 1
6 5 22 1
7 6 22 1
8 10 22 1
9 22 23 1
10 23 24 2
11 23 27 1
12 24 25 1
13 24 28 1
14 25 26 1
15 26 27 2
16 27 29 1
17 7 28 1
18 8 28 1
19 9 28 1
20 29 30 2
21 29 31 1
22 12 31 1
23 13 31 1
24 11 32 1
25 14 32 1
26 32 33 1
27 33 34 1
28 34 35 2
29 34 39 1
30 1 35 1
31 35 36 1
32 17 36 1
33 36 37 2
34 16 37 1
35 37 38 1
36 15 38 1
37 38 39 2
38 39 40 1
39 40 41 1
40 2 41 1
41 4 41 1
42 18 41 1
@<TRIPOS>SUBSTRUCTURE
1	UNK0	1	GROUP	1 ****	UNK
