# created with PyMOL 2.5.0
@<TRIPOS>MOLECULE
ZINC00038397
41 42 1                 
SMALL
USER_CHARGES
@<TRIPOS>ATOM
1	 H12	7.400	12.780	24.940	 H	1	UNK0	0.000	
2	 H17	1.830	14.020	22.810	 H	1	UNK0	0.000	
3	 H01	3.850	10.050	24.720	 H	1	UNK0	0.000	
4	 H18	3.540	13.700	22.490	 H	1	UNK0	0.000	
5	 H03	2.980	4.390	22.160	 H	1	UNK0	0.000	
6	 H02	2.720	3.620	23.730	 H	1	UNK0	0.000	
7	 H06	2.390	4.030	25.950	 H	1	UNK0	0.000	
8	 H05	0.910	4.930	25.590	 H	1	UNK0	0.000	
9	 H07	1.910	5.390	26.980	 H	1	UNK0	0.000	
10	 H04	4.370	3.890	23.150	 H	1	UNK0	0.000	
11	 H10	6.810	11.470	23.360	 H	1	UNK0	0.000	
12	 H09	6.070	6.170	20.750	 H	1	UNK0	0.000	
13	 H08	5.770	5.410	22.300	 H	1	UNK0	0.000	
14	 H11	6.250	11.060	25.020	 H	1	UNK0	0.000	
15	 H15	4.080	16.360	25.740	 H	1	UNK0	0.000	
16	 H14	6.320	16.490	26.730	 H	1	UNK0	0.000	
17	 H13	7.980	14.710	26.310	 H	1	UNK0	0.000	
18	 H16	2.600	12.660	23.630	 H	1	UNK0	0.000	
19	  N1	4.280	9.440	24.050	N.pl3	1	UNK0	0.000	
20	  C1	5.490	9.820	23.510	C.2	1	UNK0	0.000	
21	  O1	6.330	9.050	23.070	O.2	1	UNK0	0.000	
22	  C2	3.360	4.310	23.180	C.3	1	UNK0	0.000	
23	  C3	3.380	5.640	23.820	C.2	1	UNK0	0.000	
24	  C4	2.700	5.940	25.090	C.2	1	UNK0	0.000	
25	  S1	2.830	7.740	25.550	S.3	1	UNK0	0.000	
26	  C5	3.850	8.130	24.050	C.2	1	UNK0	0.000	
27	  C6	4.050	6.950	23.180	C.2	1	UNK0	0.000	
28	  C7	1.940	5.020	25.950	C.3	1	UNK0	0.000	
29	  C8	4.630	7.030	21.870	C.2	1	UNK0	0.000	
30	  O2	4.400	7.920	21.060	O.2	1	UNK0	0.000	
31	  N2	5.480	6.030	21.570	N.pl3	1	UNK0	0.000	
32	  C9	5.940	11.200	23.980	C.3	1	UNK0	0.000	
33	  O3	4.960	12.240	23.870	O.3	1	UNK0	0.000	
34	 C10	5.340	13.410	24.560	C.2	1	UNK0	0.000	
35	 C11	6.640	13.540	25.090	C.2	1	UNK0	0.000	
36	 C12	6.990	14.640	25.870	C.2	1	UNK0	0.000	
37	 C13	6.060	15.640	26.110	C.2	1	UNK0	0.000	
38	 C14	4.790	15.560	25.550	C.2	1	UNK0	0.000	
39	 C15	4.410	14.470	24.780	C.2	1	UNK0	0.000	
40	  O4	3.080	14.550	24.350	O.3	1	UNK0	0.000	
41	 C16	2.770	13.670	23.260	C.3	1	UNK0	0.000	
@<TRIPOS>BOND
1 3 19 1
2 19 20 1
3 19 26 1
4 20 21 2
5 20 32 1
6 5 22 1
7 6 22 1
8 10 22 1
9 22 23 1
10 23 24 2
11 23 27 1
12 24 25 1
13 24 28 1
14 25 26 1
15 26 27 2
16 27 29 1
17 7 28 1
18 8 28 1
19 9 28 1
20 29 30 2
21 29 31 1
22 12 31 1
23 13 31 1
24 11 32 1
25 14 32 1
26 32 33 1
27 33 34 1
28 34 35 2
29 34 39 1
30 1 35 1
31 35 36 1
32 17 36 1
33 36 37 2
34 16 37 1
35 37 38 1
36 15 38 1
37 38 39 2
38 39 40 1
39 40 41 1
40 2 41 1
41 4 41 1
42 18 41 1
@<TRIPOS>SUBSTRUCTURE
1	UNK0	1	GROUP	1 ****	UNK
