# created with PyMOL 2.5.0
@<TRIPOS>MOLECULE
ZINC00038397
41 42 1                 
SMALL
USER_CHARGES
@<TRIPOS>ATOM
1	 H12	8.040	14.910	24.420	 H	1	UNK0	0.000	
2	 H17	2.970	11.750	25.010	 H	1	UNK0	0.000	
3	 H01	6.210	10.720	22.650	 H	1	UNK0	0.000	
4	 H18	2.480	12.930	23.740	 H	1	UNK0	0.000	
5	 H03	2.910	5.780	23.700	 H	1	UNK0	0.000	
6	 H02	4.210	4.850	22.960	 H	1	UNK0	0.000	
7	 H06	6.450	4.730	25.380	 H	1	UNK0	0.000	
8	 H05	4.670	4.750	25.370	 H	1	UNK0	0.000	
9	 H07	5.560	5.650	26.610	 H	1	UNK0	0.000	
10	 H04	3.400	6.080	22.010	 H	1	UNK0	0.000	
11	 H10	8.790	11.980	22.640	 H	1	UNK0	0.000	
12	 H09	2.840	8.750	20.510	 H	1	UNK0	0.000	
13	 H08	2.650	7.980	22.050	 H	1	UNK0	0.000	
14	 H11	8.680	12.700	24.240	 H	1	UNK0	0.000	
15	 H15	3.320	13.810	25.530	 H	1	UNK0	0.000	
16	 H14	4.490	15.630	26.720	 H	1	UNK0	0.000	
17	 H13	6.830	16.180	26.190	 H	1	UNK0	0.000	
18	 H16	2.660	11.210	23.350	 H	1	UNK0	0.000	
19	  N1	6.710	10.180	23.350	N.pl3	1	UNK0	0.000	
20	  C1	7.740	10.790	24.030	C.2	1	UNK0	0.000	
21	  O1	8.500	10.270	24.830	O.2	1	UNK0	0.000	
22	  C2	3.760	5.840	23.010	C.3	1	UNK0	0.000	
23	  C3	4.760	6.810	23.500	C.2	1	UNK0	0.000	
24	  C4	5.590	6.540	24.680	C.2	1	UNK0	0.000	
25	  S1	6.790	7.890	25.040	S.3	1	UNK0	0.000	
26	  C5	6.190	8.910	23.600	C.2	1	UNK0	0.000	
27	  C6	5.100	8.250	22.860	C.2	1	UNK0	0.000	
28	  C7	5.560	5.350	25.560	C.3	1	UNK0	0.000	
29	  C8	4.530	8.840	21.670	C.2	1	UNK0	0.000	
30	  O2	5.140	9.610	20.940	O.2	1	UNK0	0.000	
31	  N2	3.260	8.510	21.410	N.pl3	1	UNK0	0.000	
32	  C9	8.110	12.170	23.470	C.3	1	UNK0	0.000	
33	  O3	7.050	12.990	22.950	O.3	1	UNK0	0.000	
34	 C10	6.370	13.610	24.010	C.2	1	UNK0	0.000	
35	 C11	7.010	14.650	24.680	C.2	1	UNK0	0.000	
36	 C12	6.340	15.370	25.660	C.2	1	UNK0	0.000	
37	 C13	5.010	15.060	25.970	C.2	1	UNK0	0.000	
38	 C14	4.360	14.020	25.280	C.2	1	UNK0	0.000	
39	 C15	5.030	13.290	24.310	C.2	1	UNK0	0.000	
40	  O4	4.440	12.220	23.600	O.3	1	UNK0	0.000	
41	 C16	3.060	12.040	23.960	C.3	1	UNK0	0.000	
@<TRIPOS>BOND
1 3 19 1
2 19 20 1
3 19 26 1
4 20 21 2
5 20 32 1
6 5 22 1
7 6 22 1
8 10 22 1
9 22 23 1
10 23 24 2
11 23 27 1
12 24 25 1
13 24 28 1
14 25 26 1
15 26 27 2
16 27 29 1
17 7 28 1
18 8 28 1
19 9 28 1
20 29 30 2
21 29 31 1
22 12 31 1
23 13 31 1
24 11 32 1
25 14 32 1
26 32 33 1
27 33 34 1
28 34 35 2
29 34 39 1
30 1 35 1
31 35 36 1
32 17 36 1
33 36 37 2
34 16 37 1
35 37 38 1
36 15 38 1
37 38 39 2
38 39 40 1
39 40 41 1
40 2 41 1
41 4 41 1
42 18 41 1
@<TRIPOS>SUBSTRUCTURE
1	UNK0	1	GROUP	1 ****	UNK
