# created with PyMOL 2.5.0
@<TRIPOS>MOLECULE
ZINC00038397
41 42 1                 
SMALL
USER_CHARGES
@<TRIPOS>ATOM
1	 H12	10.220	12.160	23.520	 H	1	UNK0	0.000	
2	 H17	4.290	14.560	25.150	 H	1	UNK0	0.000	
3	 H01	5.520	12.010	23.620	 H	1	UNK0	0.000	
4	 H18	5.350	13.890	26.410	 H	1	UNK0	0.000	
5	 H03	0.780	7.860	23.840	 H	1	UNK0	0.000	
6	 H02	0.400	8.310	25.500	 H	1	UNK0	0.000	
7	 H06	0.670	10.690	26.970	 H	1	UNK0	0.000	
8	 H05	-0.250	10.540	25.460	 H	1	UNK0	0.000	
9	 H07	0.550	12.070	25.860	 H	1	UNK0	0.000	
10	 H04	1.720	7.160	25.180	 H	1	UNK0	0.000	
11	 H10	7.600	10.600	21.740	 H	1	UNK0	0.000	
12	 H09	3.620	6.170	22.500	 H	1	UNK0	0.000	
13	 H08	2.500	6.780	23.630	 H	1	UNK0	0.000	
14	 H11	8.680	10.550	23.110	 H	1	UNK0	0.000	
15	 H15	7.390	14.700	26.720	 H	1	UNK0	0.000	
16	 H14	9.770	14.310	27.210	 H	1	UNK0	0.000	
17	 H13	11.190	13.070	25.610	 H	1	UNK0	0.000	
18	 H16	5.710	15.490	25.660	 H	1	UNK0	0.000	
19	  N1	5.450	11.000	23.610	N.pl3	1	UNK0	0.000	
20	  C1	6.610	10.270	23.590	C.2	1	UNK0	0.000	
21	  O1	6.780	9.200	24.150	O.2	1	UNK0	0.000	
22	  C2	1.210	8.070	24.800	C.3	1	UNK0	0.000	
23	  C3	2.150	9.190	24.720	C.2	1	UNK0	0.000	
24	  C4	1.860	10.530	25.220	C.2	1	UNK0	0.000	
25	  S1	3.210	11.740	24.840	S.3	1	UNK0	0.000	
26	  C5	4.240	10.440	24.030	C.2	1	UNK0	0.000	
27	  C6	3.570	9.120	23.950	C.2	1	UNK0	0.000	
28	  C7	0.640	10.980	25.910	C.3	1	UNK0	0.000	
29	  C8	4.100	8.050	23.120	C.2	1	UNK0	0.000	
30	  O2	4.910	8.140	22.230	O.2	1	UNK0	0.000	
31	  N2	3.420	6.860	23.200	N.pl3	1	UNK0	0.000	
32	  C9	7.730	10.960	22.760	C.3	1	UNK0	0.000	
33	  O3	7.760	12.390	22.720	O.3	1	UNK0	0.000	
34	 C10	8.240	12.900	23.930	C.2	1	UNK0	0.000	
35	 C11	9.600	12.700	24.210	C.2	1	UNK0	0.000	
36	 C12	10.140	13.220	25.390	C.2	1	UNK0	0.000	
37	 C13	9.340	13.920	26.290	C.2	1	UNK0	0.000	
38	 C14	7.990	14.130	26.000	C.2	1	UNK0	0.000	
39	 C15	7.430	13.640	24.820	C.2	1	UNK0	0.000	
40	  O4	6.090	13.810	24.460	O.3	1	UNK0	0.000	
41	 C16	5.340	14.480	25.490	C.3	1	UNK0	0.000	
@<TRIPOS>BOND
1 3 19 1
2 19 20 1
3 19 26 1
4 20 21 2
5 20 32 1
6 5 22 1
7 6 22 1
8 10 22 1
9 22 23 1
10 23 24 2
11 23 27 1
12 24 25 1
13 24 28 1
14 25 26 1
15 26 27 2
16 27 29 1
17 7 28 1
18 8 28 1
19 9 28 1
20 29 30 2
21 29 31 1
22 12 31 1
23 13 31 1
24 11 32 1
25 14 32 1
26 32 33 1
27 33 34 1
28 34 35 2
29 34 39 1
30 1 35 1
31 35 36 1
32 17 36 1
33 36 37 2
34 16 37 1
35 37 38 1
36 15 38 1
37 38 39 2
38 39 40 1
39 40 41 1
40 2 41 1
41 4 41 1
42 18 41 1
@<TRIPOS>SUBSTRUCTURE
1	UNK0	1	GROUP	1 ****	UNK
