# created with PyMOL 2.5.0
@<TRIPOS>MOLECULE
ZINC00038397
41 42 1                 
SMALL
USER_CHARGES
@<TRIPOS>ATOM
1	 H12	10.220	13.460	25.540	 H	1	UNK0	0.000	
2	 H17	4.580	15.390	26.490	 H	1	UNK0	0.000	
3	 H01	5.690	13.020	24.350	 H	1	UNK0	0.000	
4	 H18	5.340	16.780	25.630	 H	1	UNK0	0.000	
5	 H03	1.410	8.540	25.840	 H	1	UNK0	0.000	
6	 H02	1.260	8.530	24.070	 H	1	UNK0	0.000	
7	 H06	0.420	13.200	25.850	 H	1	UNK0	0.000	
8	 H05	-0.050	11.560	26.330	 H	1	UNK0	0.000	
9	 H07	-0.300	12.100	24.660	 H	1	UNK0	0.000	
10	 H04	0.150	9.490	25.050	 H	1	UNK0	0.000	
11	 H10	8.470	11.460	23.440	 H	1	UNK0	0.000	
12	 H09	4.130	7.010	23.650	 H	1	UNK0	0.000	
13	 H08	3.000	7.650	24.760	 H	1	UNK0	0.000	
14	 H11	8.720	11.690	25.150	 H	1	UNK0	0.000	
15	 H15	6.400	16.040	27.390	 H	1	UNK0	0.000	
16	 H14	8.520	15.900	28.630	 H	1	UNK0	0.000	
17	 H13	10.430	14.620	27.730	 H	1	UNK0	0.000	
18	 H16	4.090	15.820	24.840	 H	1	UNK0	0.000	
19	  N1	5.590	12.010	24.330	N.pl3	1	UNK0	0.000	
20	  C1	6.720	11.260	24.590	C.2	1	UNK0	0.000	
21	  O1	6.720	10.120	25.020	O.2	1	UNK0	0.000	
22	  C2	1.180	9.150	24.960	C.3	1	UNK0	0.000	
23	  C3	2.120	10.280	24.890	C.2	1	UNK0	0.000	
24	  C4	1.720	11.660	25.160	C.2	1	UNK0	0.000	
25	  S1	3.120	12.870	24.940	S.3	1	UNK0	0.000	
26	  C5	4.300	11.510	24.500	C.2	1	UNK0	0.000	
27	  C6	3.660	10.180	24.430	C.2	1	UNK0	0.000	
28	  C7	0.370	12.160	25.520	C.3	1	UNK0	0.000	
29	  C8	4.300	9.040	23.840	C.2	1	UNK0	0.000	
30	  O2	5.160	9.140	22.980	O.2	1	UNK0	0.000	
31	  N2	3.790	7.820	24.120	N.pl3	1	UNK0	0.000	
32	  C9	8.060	11.950	24.320	C.3	1	UNK0	0.000	
33	  O3	8.070	13.370	24.030	O.3	1	UNK0	0.000	
34	 C10	8.170	14.060	25.240	C.2	1	UNK0	0.000	
35	 C11	9.380	14.010	25.950	C.2	1	UNK0	0.000	
36	 C12	9.500	14.660	27.170	C.2	1	UNK0	0.000	
37	 C13	8.420	15.380	27.680	C.2	1	UNK0	0.000	
38	 C14	7.220	15.470	26.970	C.2	1	UNK0	0.000	
39	 C15	7.090	14.820	25.730	C.2	1	UNK0	0.000	
40	  O4	5.910	14.890	24.960	O.3	1	UNK0	0.000	
41	 C16	4.940	15.770	25.530	C.3	1	UNK0	0.000	
@<TRIPOS>BOND
1 3 19 1
2 19 20 1
3 19 26 1
4 20 21 2
5 20 32 1
6 5 22 1
7 6 22 1
8 10 22 1
9 22 23 1
10 23 24 2
11 23 27 1
12 24 25 1
13 24 28 1
14 25 26 1
15 26 27 2
16 27 29 1
17 7 28 1
18 8 28 1
19 9 28 1
20 29 30 2
21 29 31 1
22 12 31 1
23 13 31 1
24 11 32 1
25 14 32 1
26 32 33 1
27 33 34 1
28 34 35 2
29 34 39 1
30 1 35 1
31 35 36 1
32 17 36 1
33 36 37 2
34 16 37 1
35 37 38 1
36 15 38 1
37 38 39 2
38 39 40 1
39 40 41 1
40 2 41 1
41 4 41 1
42 18 41 1
@<TRIPOS>SUBSTRUCTURE
1	UNK0	1	GROUP	1 ****	UNK
