# created with PyMOL 2.5.0
@<TRIPOS>MOLECULE
ZINC00038397
41 42 1                 
SMALL
USER_CHARGES
@<TRIPOS>ATOM
1	 H12	11.560	15.020	24.820	 H	1	UNK0	0.000	
2	 H17	5.900	14.470	26.960	 H	1	UNK0	0.000	
3	 H01	7.200	12.850	23.760	 H	1	UNK0	0.000	
4	 H18	5.920	16.000	26.000	 H	1	UNK0	0.000	
5	 H03	3.550	7.550	22.150	 H	1	UNK0	0.000	
6	 H02	5.130	6.890	22.610	 H	1	UNK0	0.000	
7	 H06	2.160	9.150	22.780	 H	1	UNK0	0.000	
8	 H05	2.140	10.530	23.880	 H	1	UNK0	0.000	
9	 H07	2.630	8.930	24.470	 H	1	UNK0	0.000	
10	 H04	4.890	7.610	21.000	 H	1	UNK0	0.000	
11	 H10	10.690	12.370	23.770	 H	1	UNK0	0.000	
12	 H09	8.190	7.300	21.000	 H	1	UNK0	0.000	
13	 H08	6.820	7.230	22.050	 H	1	UNK0	0.000	
14	 H11	9.830	12.480	25.300	 H	1	UNK0	0.000	
15	 H15	7.500	15.730	27.600	 H	1	UNK0	0.000	
16	 H14	9.700	16.480	28.410	 H	1	UNK0	0.000	
17	 H13	11.720	16.190	27.020	 H	1	UNK0	0.000	
18	 H16	5.020	14.590	25.430	 H	1	UNK0	0.000	
19	  N1	7.500	11.930	23.440	N.pl3	1	UNK0	0.000	
20	  C1	8.740	11.510	23.780	C.2	1	UNK0	0.000	
21	  O1	9.040	10.330	23.960	O.2	1	UNK0	0.000	
22	  C2	4.640	7.690	22.060	C.3	1	UNK0	0.000	
23	  C3	5.020	9.010	22.600	C.2	1	UNK0	0.000	
24	  C4	4.070	9.900	23.290	C.2	1	UNK0	0.000	
25	  S1	4.850	11.520	23.740	S.3	1	UNK0	0.000	
26	  C5	6.500	11.000	23.120	C.2	1	UNK0	0.000	
27	  C6	6.480	9.670	22.490	C.2	1	UNK0	0.000	
28	  C7	2.680	9.620	23.610	C.3	1	UNK0	0.000	
29	  C8	7.630	9.100	21.760	C.2	1	UNK0	0.000	
30	  O2	8.460	9.740	21.160	O.2	1	UNK0	0.000	
31	  N2	7.570	7.760	21.670	N.pl3	1	UNK0	0.000	
32	  C9	9.720	12.600	24.220	C.3	1	UNK0	0.000	
33	  O3	9.410	13.960	23.820	O.3	1	UNK0	0.000	
34	 C10	9.430	14.730	24.970	C.2	1	UNK0	0.000	
35	 C11	10.670	15.190	25.420	C.2	1	UNK0	0.000	
36	 C12	10.760	15.840	26.650	C.2	1	UNK0	0.000	
37	 C13	9.620	16.020	27.430	C.2	1	UNK0	0.000	
38	 C14	8.370	15.580	26.970	C.2	1	UNK0	0.000	
39	 C15	8.260	14.930	25.730	C.2	1	UNK0	0.000	
40	  O4	7.050	14.420	25.240	O.3	1	UNK0	0.000	
41	 C16	5.920	14.910	25.960	C.3	1	UNK0	0.000	
@<TRIPOS>BOND
1 3 19 1
2 19 20 1
3 19 26 1
4 20 21 2
5 20 32 1
6 5 22 1
7 6 22 1
8 10 22 1
9 22 23 1
10 23 24 2
11 23 27 1
12 24 25 1
13 24 28 1
14 25 26 1
15 26 27 2
16 27 29 1
17 7 28 1
18 8 28 1
19 9 28 1
20 29 30 2
21 29 31 1
22 12 31 1
23 13 31 1
24 11 32 1
25 14 32 1
26 32 33 1
27 33 34 1
28 34 35 2
29 34 39 1
30 1 35 1
31 35 36 1
32 17 36 1
33 36 37 2
34 16 37 1
35 37 38 1
36 15 38 1
37 38 39 2
38 39 40 1
39 40 41 1
40 2 41 1
41 4 41 1
42 18 41 1
@<TRIPOS>SUBSTRUCTURE
1	UNK0	1	GROUP	1 ****	UNK
