# created with PyMOL 2.5.0
@<TRIPOS>MOLECULE
ZINC00038397
41 42 1                 
SMALL
USER_CHARGES
@<TRIPOS>ATOM
1	 H12	9.260	14.100	24.730	 H	1	UNK0	0.000	
2	 H17	3.600	13.220	26.690	 H	1	UNK0	0.000	
3	 H01	5.020	12.560	23.590	 H	1	UNK0	0.000	
4	 H18	3.770	15.010	26.560	 H	1	UNK0	0.000	
5	 H03	2.900	7.060	21.260	 H	1	UNK0	0.000	
6	 H02	1.320	7.410	21.960	 H	1	UNK0	0.000	
7	 H06	0.430	8.210	23.880	 H	1	UNK0	0.000	
8	 H05	0.240	9.850	24.520	 H	1	UNK0	0.000	
9	 H07	1.160	8.650	25.440	 H	1	UNK0	0.000	
10	 H04	2.550	6.600	22.920	 H	1	UNK0	0.000	
11	 H10	7.740	12.950	21.850	 H	1	UNK0	0.000	
12	 H09	5.540	7.660	19.860	 H	1	UNK0	0.000	
13	 H08	4.730	7.230	21.360	 H	1	UNK0	0.000	
14	 H11	8.420	12.430	23.400	 H	1	UNK0	0.000	
15	 H15	5.290	13.870	27.720	 H	1	UNK0	0.000	
16	 H14	7.570	14.020	28.670	 H	1	UNK0	0.000	
17	 H13	9.540	14.130	27.200	 H	1	UNK0	0.000	
18	 H16	2.700	14.130	25.460	 H	1	UNK0	0.000	
19	  N1	5.270	11.730	23.040	N.pl3	1	UNK0	0.000	
20	  C1	6.600	11.510	22.830	C.2	1	UNK0	0.000	
21	  O1	7.090	10.410	22.540	O.2	1	UNK0	0.000	
22	  C2	2.380	7.370	22.170	C.3	1	UNK0	0.000	
23	  C3	2.890	8.690	22.660	C.2	1	UNK0	0.000	
24	  C4	2.160	9.400	23.720	C.2	1	UNK0	0.000	
25	  S1	2.940	11.020	24.150	S.3	1	UNK0	0.000	
26	  C5	4.320	10.760	22.960	C.2	1	UNK0	0.000	
27	  C6	4.160	9.530	22.150	C.2	1	UNK0	0.000	
28	  C7	0.930	9.020	24.440	C.3	1	UNK0	0.000	
29	  C8	4.960	9.210	20.980	C.2	1	UNK0	0.000	
30	  O2	5.270	10.030	20.120	O.2	1	UNK0	0.000	
31	  N2	5.190	7.920	20.780	N.pl3	1	UNK0	0.000	
32	  C9	7.500	12.730	22.890	C.3	1	UNK0	0.000	
33	  O3	6.950	13.980	23.450	O.3	1	UNK0	0.000	
34	 C10	7.110	13.950	24.820	C.2	1	UNK0	0.000	
35	 C11	8.380	14.050	25.380	C.2	1	UNK0	0.000	
36	 C12	8.550	14.080	26.760	C.2	1	UNK0	0.000	
37	 C13	7.430	14.020	27.600	C.2	1	UNK0	0.000	
38	 C14	6.140	13.940	27.050	C.2	1	UNK0	0.000	
39	 C15	5.970	13.940	25.650	C.2	1	UNK0	0.000	
40	  O4	4.690	13.900	25.080	O.3	1	UNK0	0.000	
41	 C16	3.650	14.070	26.000	C.3	1	UNK0	0.000	
@<TRIPOS>BOND
1 3 19 1
2 19 20 1
3 19 26 1
4 20 21 2
5 20 32 1
6 5 22 1
7 6 22 1
8 10 22 1
9 22 23 1
10 23 24 2
11 23 27 1
12 24 25 1
13 24 28 1
14 25 26 1
15 26 27 2
16 27 29 1
17 7 28 1
18 8 28 1
19 9 28 1
20 29 30 2
21 29 31 1
22 12 31 1
23 13 31 1
24 11 32 1
25 14 32 1
26 32 33 1
27 33 34 1
28 34 35 2
29 34 39 1
30 1 35 1
31 35 36 1
32 17 36 1
33 36 37 2
34 16 37 1
35 37 38 1
36 15 38 1
37 38 39 2
38 39 40 1
39 40 41 1
40 2 41 1
41 4 41 1
42 18 41 1
@<TRIPOS>SUBSTRUCTURE
1	UNK0	1	GROUP	1 ****	UNK
