ZINC31490747
 OpenBabel12162114133D

 73 78  0  0  0  0  0  0  0  0999 V2000
    4.6866   -1.8957    0.3261 C   0  0  0  0  0  0  0  0  0  0  0  0
    3.8383   -0.7493    0.2343 O   0  0  0  0  0  0  0  0  0  0  0  0
    2.5070   -0.9500    0.4230 C   0  0  0  0  0  0  0  0  0  0  0  0
    2.0329   -2.2385    0.6927 C   0  0  0  0  0  0  0  0  0  0  0  0
    0.7087   -2.4723    0.8860 C   0  0  0  0  0  0  0  0  0  0  0  0
   -0.2114   -1.4060    0.8160 C   0  0  0  0  0  0  0  0  0  0  0  0
    0.2709   -0.1001    0.5369 C   0  0  0  0  0  0  0  0  0  0  0  0
    1.6477    0.1076    0.3468 C   0  0  0  0  0  0  0  0  0  0  0  0
   -0.6382    0.9743    0.4708 C   0  0  0  0  0  0  0  0  0  0  0  0
   -2.0032    0.6927    0.6763 C   0  0  0  0  0  0  0  0  0  0  0  0
   -2.9675    1.7136    0.6199 C   0  0  0  0  0  0  0  0  0  0  0  0
   -4.2791    1.4135    0.8218 C   0  0  0  0  0  0  0  0  0  0  0  0
   -4.6809    0.1039    1.0855 C   0  0  0  0  0  0  0  0  0  0  0  0
   -3.7772   -0.9092    1.1481 C   0  0  0  0  0  0  0  0  0  0  0  0
   -2.4078   -0.6416    0.9444 C   0  0  0  0  0  0  0  0  0  0  0  0
   -1.5122   -1.6255    1.0037 N   0  3  0  0  0  0  0  0  0  0  0  0
   -0.2068    2.2579    0.2080 N   0  0  0  0  0  0  0  0  0  0  0  0
   -0.1403    2.7170   -1.1119 C   0  0  0  0  0  0  0  0  0  0  0  0
   -0.4019    1.8485   -2.1638 C   0  0  0  0  0  0  0  0  0  0  0  0
   -0.3412    2.3039   -3.4659 C   0  0  0  0  0  0  0  0  0  0  0  0
   -0.0078    3.6255   -3.7241 C   0  0  0  0  0  0  0  0  0  0  0  0
    0.2588    4.4924   -2.6744 C   0  0  0  0  0  0  0  0  0  0  0  0
    0.1929    4.0403   -1.3714 C   0  0  0  0  0  0  0  0  0  0  0  0
    0.6208    5.9278   -2.9563 C   0  0  0  0  0  0  0  0  0  0  0  0
   -0.6008    6.6959   -3.2316 N   0  3  0  0  0  0  0  0  0  0  0  0
   -1.5999    6.5134   -2.1478 C   0  0  0  0  0  0  0  0  0  0  0  0
   -2.5325    7.7393   -2.3152 C   0  0  0  0  0  0  0  0  0  0  0  0
   -1.5525    8.8679   -2.7100 C   0  0  0  0  0  0  0  0  0  0  0  0
   -0.3158    8.1465   -3.2772 C   0  0  0  0  0  0  0  0  0  0  0  0
    0.0573    4.0716   -5.0070 O   0  0  0  0  0  0  0  0  0  0  0  0
   -0.6315    1.3635   -4.6071 C   0  0  0  0  0  0  0  0  0  0  0  0
    0.6287    0.9756   -5.2548 N   0  3  0  0  0  0  0  0  0  0  0  0
    1.5513    0.3347   -4.2830 C   0  0  0  0  0  0  0  0  0  0  0  0
    2.5310   -0.4516   -5.1899 C   0  0  0  0  0  0  0  0  0  0  0  0
    1.6141   -0.9703   -6.3214 C   0  0  0  0  0  0  0  0  0  0  0  0
    0.3934   -0.0316   -6.3119 C   0  0  0  0  0  0  0  0  0  0  0  0
    4.3153   -2.6156   -0.4181 H   0  0  0  0  0  0  0  0  0  0  0  0
    4.5186   -2.3256    1.3246 H   0  0  0  0  0  0  0  0  0  0  0  0
    5.7472   -1.6544    0.1622 H   0  0  0  0  0  0  0  0  0  0  0  0
    2.7440   -3.0758    0.7491 H   0  0  0  0  0  0  0  0  0  0  0  0
    0.3546   -3.4922    1.0969 H   0  0  0  0  0  0  0  0  0  0  0  0
    2.0308    1.1173    0.1377 H   0  0  0  0  0  0  0  0  0  0  0  0
   -2.6632    2.7503    0.4135 H   0  0  0  0  0  0  0  0  0  0  0  0
   -5.0324    2.2138    0.7765 H   0  0  0  0  0  0  0  0  0  0  0  0
   -5.7475   -0.1125    1.2455 H   0  0  0  0  0  0  0  0  0  0  0  0
   -4.1132   -1.9355    1.3572 H   0  0  0  0  0  0  0  0  0  0  0  0
   -1.8344   -2.5838    1.2003 H   0  0  0  0  0  0  0  0  0  0  0  0
    0.0664    2.8783    0.9835 H   0  0  0  0  0  0  0  0  0  0  0  0
   -0.6573    0.7982   -1.9596 H   0  0  0  0  0  0  0  0  0  0  0  0
    0.4042    4.7278   -0.5391 H   0  0  0  0  0  0  0  0  0  0  0  0
    1.2870    5.9742   -3.8304 H   0  0  0  0  0  0  0  0  0  0  0  0
    1.1329    6.3555   -2.0818 H   0  0  0  0  0  0  0  0  0  0  0  0
   -0.9591    6.3544   -4.1349 H   0  0  0  0  0  0  0  0  0  0  0  0
   -2.1659    5.5830   -2.3026 H   0  0  0  0  0  0  0  0  0  0  0  0
   -1.1080    6.5434   -1.1644 H   0  0  0  0  0  0  0  0  0  0  0  0
   -3.0236    7.9788   -1.3605 H   0  0  0  0  0  0  0  0  0  0  0  0
   -3.2542    7.5611   -3.1260 H   0  0  0  0  0  0  0  0  0  0  0  0
   -1.2720    9.4524   -1.8214 H   0  0  0  0  0  0  0  0  0  0  0  0
   -2.0043    9.5051   -3.4845 H   0  0  0  0  0  0  0  0  0  0  0  0
   -0.1466    8.4620   -4.3173 H   0  0  0  0  0  0  0  0  0  0  0  0
    0.5637    8.3736   -2.6568 H   0  0  0  0  0  0  0  0  0  0  0  0
   -0.8329    3.8727   -5.3918 H   0  0  0  0  0  0  0  0  0  0  0  0
   -1.2807    1.8644   -5.3403 H   0  0  0  0  0  0  0  0  0  0  0  0
   -1.1372    0.4654   -4.2228 H   0  0  0  0  0  0  0  0  0  0  0  0
    1.0321    1.8404   -5.6425 H   0  0  0  0  0  0  0  0  0  0  0  0
    2.0961    1.1004   -3.7112 H   0  0  0  0  0  0  0  0  0  0  0  0
    0.9997   -0.3586   -3.6310 H   0  0  0  0  0  0  0  0  0  0  0  0
    2.9684   -1.2963   -4.6375 H   0  0  0  0  0  0  0  0  0  0  0  0
    3.2962    0.2239   -5.5998 H   0  0  0  0  0  0  0  0  0  0  0  0
    1.2969   -2.0016   -6.1074 H   0  0  0  0  0  0  0  0  0  0  0  0
    2.1338   -0.9017   -7.2885 H   0  0  0  0  0  0  0  0  0  0  0  0
    0.3001    0.4659   -7.2885 H   0  0  0  0  0  0  0  0  0  0  0  0
   -0.5158   -0.6070   -6.0833 H   0  0  0  0  0  0  0  0  0  0  0  0
  1  2  1  0  0  0  0
  1 37  1  0  0  0  0
  1 38  1  0  0  0  0
  1 39  1  0  0  0  0
  2  3  1  0  0  0  0
  3  8  1  0  0  0  0
  3  4  2  0  0  0  0
  4  5  1  0  0  0  0
  4 40  1  0  0  0  0
  5  6  2  0  0  0  0
  5 41  1  0  0  0  0
  6 16  1  0  0  0  0
  6  7  1  0  0  0  0
  7  8  2  0  0  0  0
  7  9  1  0  0  0  0
  8 42  1  0  0  0  0
  9 10  2  0  0  0  0
  9 17  1  0  0  0  0
 10 15  1  0  0  0  0
 10 11  1  0  0  0  0
 11 12  2  0  0  0  0
 11 43  1  0  0  0  0
 12 13  1  0  0  0  0
 12 44  1  0  0  0  0
 13 14  2  0  0  0  0
 13 45  1  0  0  0  0
 14 15  1  0  0  0  0
 14 46  1  0  0  0  0
 15 16  2  0  0  0  0
 16 47  1  0  0  0  0
 17 18  1  0  0  0  0
 17 48  1  0  0  0  0
 18 23  2  0  0  0  0
 18 19  1  0  0  0  0
 19 20  2  0  0  0  0
 19 49  1  0  0  0  0
 20 21  1  0  0  0  0
 20 31  1  0  0  0  0
 21 22  2  0  0  0  0
 21 30  1  0  0  0  0
 22 23  1  0  0  0  0
 22 24  1  0  0  0  0
 23 50  1  0  0  0  0
 24 25  1  0  0  0  0
 24 51  1  0  0  0  0
 24 52  1  0  0  0  0
 25 29  1  0  0  0  0
 25 26  1  0  0  0  0
 25 53  1  0  0  0  0
 26 27  1  0  0  0  0
 26 54  1  0  0  0  0
 26 55  1  0  0  0  0
 27 28  1  0  0  0  0
 27 56  1  0  0  0  0
 27 57  1  0  0  0  0
 28 29  1  0  0  0  0
 28 58  1  0  0  0  0
 28 59  1  0  0  0  0
 29 60  1  0  0  0  0
 29 61  1  0  0  0  0
 30 62  1  0  0  0  0
 31 32  1  0  0  0  0
 31 63  1  0  0  0  0
 31 64  1  0  0  0  0
 32 36  1  0  0  0  0
 32 33  1  0  0  0  0
 32 65  1  0  0  0  0
 33 34  1  0  0  0  0
 33 66  1  0  0  0  0
 33 67  1  0  0  0  0
 34 35  1  0  0  0  0
 34 68  1  0  0  0  0
 34 69  1  0  0  0  0
 35 36  1  0  0  0  0
 35 70  1  0  0  0  0
 35 71  1  0  0  0  0
 36 72  1  0  0  0  0
 36 73  1  0  0  0  0
M  CHG  3  16   1  25   1  32   1
M  END
>  <Name>
ZINC31490747

>  <reference>
BDB50088963

>  <quality>
0.870

>  <status>
decoy

$$$$
