ZINC08636149
 OpenBabel12162114133D

 67 72  0  0  1  0  0  0  0  0999 V2000
    3.4962   -1.8373   -4.8981 C   0  0  0  0  0  0  0  0  0  0  0  0
    3.1079   -0.4382   -4.8947 O   0  0  0  0  0  0  0  0  0  0  0  0
    2.5193    0.0283   -3.7822 C   0  0  0  0  0  0  0  0  0  0  0  0
    2.3347   -0.7081   -2.8422 O   0  0  0  0  0  0  0  0  0  0  0  0
    2.0888    1.4704   -3.7055 C   0  0  2  0  0  0  0  0  0  0  0  0
    3.2414    2.3737   -4.1660 C   0  0  0  0  0  0  0  0  0  0  0  0
    4.3072    2.3573   -3.0994 C   0  0  0  0  0  0  0  0  0  0  0  0
    5.6860    2.7860   -3.1760 C   0  0  0  0  0  0  0  0  0  0  0  0
    6.4567    3.3294   -4.2087 C   0  0  0  0  0  0  0  0  0  0  0  0
    7.7653    3.6255   -3.9177 C   0  0  0  0  0  0  0  0  0  0  0  0
    8.3098    3.4005   -2.6640 C   0  0  0  0  0  0  0  0  0  0  0  0
    7.5712    2.8635   -1.6240 C   0  0  0  0  0  0  0  0  0  0  0  0
    6.2392    2.5529   -1.8899 C   0  0  0  0  0  0  0  0  0  0  0  0
    5.2510    2.0209   -1.1115 N   0  0  0  0  0  0  0  0  0  0  0  0
    4.0991    1.9060   -1.8406 C   0  0  0  0  0  0  0  0  0  0  0  0
    2.7688    1.3689   -1.3740 C   0  0  1  0  0  0  0  0  0  0  0  0
    0.4208    1.2533   -1.9523 C   0  0  1  0  0  0  0  0  0  0  0  0
    0.0191    1.7881   -0.5751 C   0  0  0  0  0  0  0  0  0  0  0  0
    1.0765    1.3871    0.4566 C   0  0  1  0  0  0  0  0  0  0  0  0
    2.4433    1.9199    0.0154 C   0  0  0  0  0  0  0  0  0  0  0  0
   -0.2119    1.0867    2.4845 C   0  0  0  0  0  0  0  0  0  0  0  0
   -0.5515    1.7123    3.8388 C   0  0  0  0  0  0  0  0  0  0  0  0
   -1.5147    0.8191    4.5774 C   0  0  0  0  0  0  0  0  0  0  0  0
   -1.3376    0.3152    5.8136 C   0  0  0  0  0  0  0  0  0  0  0  0
   -2.4472   -0.4339    6.0986 N   0  0  0  0  0  0  0  0  0  0  0  0
   -3.2602   -0.3691    5.0223 C   0  0  0  0  0  0  0  0  0  0  0  0
   -2.6960    0.3820    4.1164 N   0  0  0  0  0  0  0  0  0  0  0  0
   -0.6055    1.6718   -2.9734 C   0  0  0  0  0  0  0  0  0  0  0  0
   -1.5745    0.7762   -3.3866 C   0  0  0  0  0  0  0  0  0  0  0  0
   -2.5161    1.1594   -4.3231 C   0  0  0  0  0  0  0  0  0  0  0  0
   -2.4896    2.4383   -4.8471 C   0  0  0  0  0  0  0  0  0  0  0  0
   -1.5204    3.3347   -4.4341 C   0  0  0  0  0  0  0  0  0  0  0  0
   -0.5814    2.9523   -3.4923 C   0  0  0  0  0  0  0  0  0  0  0  0
   -1.4861    4.9408   -5.0921 Cl  0  0  0  0  0  0  0  0  0  0  0  0
    1.7284    1.8389   -2.3150 N   0  0  2  0  0  0  0  0  0  0  0  0
    0.7308    1.9666    1.7683 N   0  3  0  0  0  0  0  0  0  0  0  0
    2.5805   -2.4136   -4.6999 H   0  0  0  0  0  0  0  0  0  0  0  0
    4.1733   -1.9732   -4.0419 H   0  0  0  0  0  0  0  0  0  0  0  0
    3.9707   -2.1429   -5.8423 H   0  0  0  0  0  0  0  0  0  0  0  0
    1.2108    1.6032   -4.3547 H   0  0  0  0  0  0  0  0  0  0  0  0
    3.6572    1.9906   -5.1096 H   0  0  0  0  0  0  0  0  0  0  0  0
    2.8743    3.4012   -4.3053 H   0  0  0  0  0  0  0  0  0  0  0  0
    6.0340    3.5112   -5.2078 H   0  0  0  0  0  0  0  0  0  0  0  0
    8.4018    4.0552   -4.7053 H   0  0  0  0  0  0  0  0  0  0  0  0
    9.3650    3.6573   -2.4891 H   0  0  0  0  0  0  0  0  0  0  0  0
    8.0154    2.6898   -0.6328 H   0  0  0  0  0  0  0  0  0  0  0  0
    5.3571    1.7474   -0.1242 H   0  0  0  0  0  0  0  0  0  0  0  0
    2.8052    0.2702   -1.3346 H   0  0  0  0  0  0  0  0  0  0  0  0
    0.4837    0.1554   -1.9271 H   0  0  0  0  0  0  0  0  0  0  0  0
   -0.9538    1.3644   -0.2855 H   0  0  0  0  0  0  0  0  0  0  0  0
   -0.0559    2.8848   -0.6151 H   0  0  0  0  0  0  0  0  0  0  0  0
    1.1125    0.2906    0.5362 H   0  0  0  0  0  0  0  0  0  0  0  0
    3.2129    1.5933    0.7303 H   0  0  0  0  0  0  0  0  0  0  0  0
    2.4144    3.0189   -0.0211 H   0  0  0  0  0  0  0  0  0  0  0  0
    0.2519    0.1015    2.6406 H   0  0  0  0  0  0  0  0  0  0  0  0
   -1.1307    0.9725    1.8905 H   0  0  0  0  0  0  0  0  0  0  0  0
    0.3685    1.8274    4.4307 H   0  0  0  0  0  0  0  0  0  0  0  0
   -1.0131    2.6985    3.6830 H   0  0  0  0  0  0  0  0  0  0  0  0
   -0.4683    0.4749    6.4685 H   0  0  0  0  0  0  0  0  0  0  0  0
   -2.6282   -0.9505    6.9711 H   0  0  0  0  0  0  0  0  0  0  0  0
   -4.2363   -0.8669    4.9252 H   0  0  0  0  0  0  0  0  0  0  0  0
   -1.5960   -0.2416   -2.9699 H   0  0  0  0  0  0  0  0  0  0  0  0
   -3.2867    0.4465   -4.6515 H   0  0  0  0  0  0  0  0  0  0  0  0
   -3.2391    2.7431   -5.5923 H   0  0  0  0  0  0  0  0  0  0  0  0
    0.1840    3.6675   -3.1568 H   0  0  0  0  0  0  0  0  0  0  0  0
    1.5875    2.0767    2.3294 H   0  0  0  0  0  0  0  0  0  0  0  0
    0.2968    2.8905    1.6307 H   0  0  0  0  0  0  0  0  0  0  0  0
  1  2  1  0  0  0  0
  1 37  1  0  0  0  0
  1 38  1  0  0  0  0
  1 39  1  0  0  0  0
  2  3  1  0  0  0  0
  3  4  2  0  0  0  0
  3  5  1  0  0  0  0
  5  6  1  0  0  0  0
  5 35  1  0  0  0  0
  5 40  1  6  0  0  0
  6  7  1  0  0  0  0
  6 41  1  0  0  0  0
  6 42  1  0  0  0  0
  7 15  2  0  0  0  0
  7  8  1  0  0  0  0
  8 13  1  0  0  0  0
  8  9  2  0  0  0  0
  9 10  1  0  0  0  0
  9 43  1  0  0  0  0
 10 11  2  0  0  0  0
 10 44  1  0  0  0  0
 11 12  1  0  0  0  0
 11 45  1  0  0  0  0
 12 13  2  0  0  0  0
 12 46  1  0  0  0  0
 13 14  1  0  0  0  0
 14 15  1  0  0  0  0
 14 47  1  0  0  0  0
 15 16  1  0  0  0  0
 16 20  1  0  0  0  0
 16 35  1  0  0  0  0
 16 48  1  1  0  0  0
 17 18  1  0  0  0  0
 17 28  1  0  0  0  0
 17 35  1  0  0  0  0
 17 49  1  1  0  0  0
 18 19  1  0  0  0  0
 18 50  1  0  0  0  0
 18 51  1  0  0  0  0
 19 20  1  0  0  0  0
 19 36  1  0  0  0  0
 19 52  1  1  0  0  0
 20 53  1  0  0  0  0
 20 54  1  0  0  0  0
 21 22  1  0  0  0  0
 21 36  1  0  0  0  0
 21 55  1  0  0  0  0
 21 56  1  0  0  0  0
 22 23  1  0  0  0  0
 22 57  1  0  0  0  0
 22 58  1  0  0  0  0
 23 27  1  0  0  0  0
 23 24  2  0  0  0  0
 24 25  1  0  0  0  0
 24 59  1  0  0  0  0
 25 26  1  0  0  0  0
 25 60  1  0  0  0  0
 26 27  2  0  0  0  0
 26 61  1  0  0  0  0
 28 33  2  0  0  0  0
 28 29  1  0  0  0  0
 29 30  2  0  0  0  0
 29 62  1  0  0  0  0
 30 31  1  0  0  0  0
 30 63  1  0  0  0  0
 31 32  2  0  0  0  0
 31 64  1  0  0  0  0
 32 33  1  0  0  0  0
 32 34  1  0  0  0  0
 33 65  1  0  0  0  0
 36 66  1  0  0  0  0
 36 67  1  0  0  0  0
M  CHG  1  36   1
M  END
>  <Name>
ZINC08636149

>  <reference>
BDB50088963

>  <quality>
0.787

>  <status>
decoy

$$$$
