ZINC14733558
 OpenBabel12162114133D

 79 83  0  0  1  0  0  0  0  0999 V2000
   -6.1204   -2.4315   -2.4527 C   0  0  0  0  0  0  0  0  0  0  0  0
   -5.3691   -1.5137   -1.8966 C   0  0  0  0  0  0  0  0  0  0  0  0
   -5.1415   -1.5273   -0.4069 C   0  0  0  0  0  0  0  0  0  0  0  0
   -3.7025   -1.5435   -0.1329 N   0  0  0  0  0  0  0  0  0  0  0  0
   -2.9570   -2.6525    0.0028 C   0  0  0  0  0  0  0  0  0  0  0  0
   -1.6838   -2.2532    0.2435 C   0  0  0  0  0  0  0  0  0  0  0  0
   -1.7145   -0.8486    0.2502 C   0  0  0  0  0  0  0  0  0  0  0  0
   -2.9664   -0.4961    0.0128 N   0  0  0  0  0  0  0  0  0  0  0  0
   -0.5697    0.0578    0.4728 C   0  0  0  0  0  0  0  0  0  0  0  0
    0.5138   -0.3967    0.7847 O   0  0  0  0  0  0  0  0  0  0  0  0
   -0.7264    1.3888    0.3301 N   0  0  0  0  0  0  0  0  0  0  0  0
   -1.9858    1.9160   -0.1977 C   0  0  0  0  0  0  0  0  0  0  0  0
   -2.6938    2.7277    0.8999 C   0  0  0  0  0  0  0  0  0  0  0  0
   -1.5748    4.0471    1.4592 S   0  0  0  0  0  0  0  0  0  0  0  0
   -0.0584    3.1449    1.8978 C   0  0  0  0  0  0  0  0  0  0  0  0
    0.3670    2.2892    0.6992 C   0  0  0  0  0  0  0  0  0  0  0  0
   -0.5250   -3.1843    0.4709 C   0  0  0  0  0  0  0  0  0  0  0  0
   -1.0809   -4.5824    0.7741 C   0  0  1  0  0  0  0  0  0  0  0  0
   -2.1263   -4.9567   -0.2801 C   0  0  0  0  0  0  0  0  0  0  0  0
   -3.3815   -4.0956   -0.0900 C   0  0  0  0  0  0  0  0  0  0  0  0
   -0.3066   -6.7333    1.5720 C   0  0  0  0  0  0  0  0  0  0  0  0
    0.7877   -7.7896    1.4049 C   0  0  0  0  0  0  0  0  0  0  0  0
    0.5671   -8.9167    2.4157 C   0  0  0  0  0  0  0  0  0  0  0  0
    0.6207   -8.3470    3.8346 C   0  0  0  0  0  0  0  0  0  0  0  0
    1.9890   -7.7063    4.0757 C   0  0  0  0  0  0  0  0  0  0  0  0
    2.2095   -6.5791    3.0649 C   0  0  0  0  0  0  0  0  0  0  0  0
    2.1560   -7.1489    1.6459 C   0  0  0  0  0  0  0  0  0  0  0  0
    1.1950   -7.3462   -0.9399 C   0  0  0  0  0  0  0  0  0  0  0  0
    1.2664   -7.9943   -2.3244 C   0  0  0  0  0  0  0  0  0  0  0  0
   -0.1199   -8.5184   -2.7094 C   0  0  0  0  0  0  0  0  0  0  0  0
   -0.5951   -9.5114   -1.6451 C   0  0  0  0  0  0  0  0  0  0  0  0
   -0.6125   -8.8193   -0.2802 C   0  0  0  0  0  0  0  0  0  0  0  0
    0.0233   -5.5600    0.7412 N   0  3  0  0  0  0  0  0  0  0  0  0
    0.7551   -8.3600    0.0423 N   0  3  0  0  0  0  0  0  0  0  0  0
   -6.5851   -3.2121   -1.8324 H   0  0  0  0  0  0  0  0  0  0  0  0
   -6.2866   -2.4216   -3.5400 H   0  0  0  0  0  0  0  0  0  0  0  0
   -4.9044   -0.7332   -2.5169 H   0  0  0  0  0  0  0  0  0  0  0  0
   -5.6069   -2.4240    0.0281 H   0  0  0  0  0  0  0  0  0  0  0  0
   -5.5894   -0.6279    0.0408 H   0  0  0  0  0  0  0  0  0  0  0  0
   -2.6316    1.0826   -0.5114 H   0  0  0  0  0  0  0  0  0  0  0  0
   -1.7791    2.5672   -1.0598 H   0  0  0  0  0  0  0  0  0  0  0  0
   -3.6138    3.1738    0.4942 H   0  0  0  0  0  0  0  0  0  0  0  0
   -2.9386    2.0703    1.7472 H   0  0  0  0  0  0  0  0  0  0  0  0
    0.7394    3.8623    2.1403 H   0  0  0  0  0  0  0  0  0  0  0  0
   -0.2531    2.4952    2.7638 H   0  0  0  0  0  0  0  0  0  0  0  0
    1.2544    1.6976    0.9683 H   0  0  0  0  0  0  0  0  0  0  0  0
    0.6070    2.9443   -0.1513 H   0  0  0  0  0  0  0  0  0  0  0  0
    0.0717   -2.8317    1.3251 H   0  0  0  0  0  0  0  0  0  0  0  0
    0.1002   -3.2242   -0.4333 H   0  0  0  0  0  0  0  0  0  0  0  0
   -1.5497   -4.5865    1.7692 H   0  0  0  0  0  0  0  0  0  0  0  0
   -2.3920   -6.0187   -0.1731 H   0  0  0  0  0  0  0  0  0  0  0  0
   -1.7124   -4.7831   -1.2844 H   0  0  0  0  0  0  0  0  0  0  0  0
   -4.0541   -4.2295   -0.9501 H   0  0  0  0  0  0  0  0  0  0  0  0
   -3.8941   -4.3905    0.8375 H   0  0  0  0  0  0  0  0  0  0  0  0
   -0.3679   -6.4298    2.6275 H   0  0  0  0  0  0  0  0  0  0  0  0
   -1.2724   -7.1506    1.2509 H   0  0  0  0  0  0  0  0  0  0  0  0
   -0.4169   -9.3770    2.2429 H   0  0  0  0  0  0  0  0  0  0  0  0
    1.3534   -9.6767    2.2966 H   0  0  0  0  0  0  0  0  0  0  0  0
    0.4625   -9.1567    4.5622 H   0  0  0  0  0  0  0  0  0  0  0  0
   -0.1656   -7.5872    3.9547 H   0  0  0  0  0  0  0  0  0  0  0  0
    2.0274   -7.2961    5.0957 H   0  0  0  0  0  0  0  0  0  0  0  0
    2.7766   -8.4648    3.9556 H   0  0  0  0  0  0  0  0  0  0  0  0
    3.1932   -6.1178    3.2371 H   0  0  0  0  0  0  0  0  0  0  0  0
    1.4225   -5.8200    3.1845 H   0  0  0  0  0  0  0  0  0  0  0  0
    2.3155   -6.3382    0.9198 H   0  0  0  0  0  0  0  0  0  0  0  0
    2.9428   -7.9083    1.5264 H   0  0  0  0  0  0  0  0  0  0  0  0
    0.4743   -6.5154   -0.9581 H   0  0  0  0  0  0  0  0  0  0  0  0
    2.1892   -6.9689   -0.6585 H   0  0  0  0  0  0  0  0  0  0  0  0
    1.5942   -7.2479   -3.0629 H   0  0  0  0  0  0  0  0  0  0  0  0
    1.9812   -8.8301   -2.3033 H   0  0  0  0  0  0  0  0  0  0  0  0
   -0.0649   -9.0245   -3.6845 H   0  0  0  0  0  0  0  0  0  0  0  0
   -0.8271   -7.6780   -2.7689 H   0  0  0  0  0  0  0  0  0  0  0  0
   -1.6090   -9.8584   -1.8931 H   0  0  0  0  0  0  0  0  0  0  0  0
    0.0904  -10.3710   -1.6113 H   0  0  0  0  0  0  0  0  0  0  0  0
   -1.2920   -7.9549   -0.3145 H   0  0  0  0  0  0  0  0  0  0  0  0
   -0.9528   -9.5284    0.4888 H   0  0  0  0  0  0  0  0  0  0  0  0
    0.8819   -5.1189    1.1005 H   0  0  0  0  0  0  0  0  0  0  0  0
    0.1815   -5.8639   -0.2302 H   0  0  0  0  0  0  0  0  0  0  0  0
    1.3959   -9.1653    0.0002 H   0  0  0  0  0  0  0  0  0  0  0  0
  1  2  2  0  0  0  0
  1 35  1  0  0  0  0
  1 36  1  0  0  0  0
  2  3  1  0  0  0  0
  2 37  1  0  0  0  0
  3  4  1  0  0  0  0
  3 38  1  0  0  0  0
  3 39  1  0  0  0  0
  4  8  1  0  0  0  0
  4  5  1  0  0  0  0
  5 20  1  0  0  0  0
  5  6  2  0  0  0  0
  6  7  1  0  0  0  0
  6 17  1  0  0  0  0
  7  8  2  0  0  0  0
  7  9  1  0  0  0  0
  9 10  2  0  0  0  0
  9 11  1  0  0  0  0
 11 16  1  0  0  0  0
 11 12  1  0  0  0  0
 12 13  1  0  0  0  0
 12 40  1  0  0  0  0
 12 41  1  0  0  0  0
 13 14  1  0  0  0  0
 13 42  1  0  0  0  0
 13 43  1  0  0  0  0
 14 15  1  0  0  0  0
 15 16  1  0  0  0  0
 15 44  1  0  0  0  0
 15 45  1  0  0  0  0
 16 46  1  0  0  0  0
 16 47  1  0  0  0  0
 17 18  1  0  0  0  0
 17 48  1  0  0  0  0
 17 49  1  0  0  0  0
 18 19  1  0  0  0  0
 18 33  1  0  0  0  0
 18 50  1  1  0  0  0
 19 20  1  0  0  0  0
 19 51  1  0  0  0  0
 19 52  1  0  0  0  0
 20 53  1  0  0  0  0
 20 54  1  0  0  0  0
 21 22  1  0  0  0  0
 21 33  1  0  0  0  0
 21 55  1  0  0  0  0
 21 56  1  0  0  0  0
 22 27  1  0  0  0  0
 22 23  1  0  0  0  0
 22 34  1  0  0  0  0
 23 24  1  0  0  0  0
 23 57  1  0  0  0  0
 23 58  1  0  0  0  0
 24 25  1  0  0  0  0
 24 59  1  0  0  0  0
 24 60  1  0  0  0  0
 25 26  1  0  0  0  0
 25 61  1  0  0  0  0
 25 62  1  0  0  0  0
 26 27  1  0  0  0  0
 26 63  1  0  0  0  0
 26 64  1  0  0  0  0
 27 65  1  0  0  0  0
 27 66  1  0  0  0  0
 28 29  1  0  0  0  0
 28 34  1  0  0  0  0
 28 67  1  0  0  0  0
 28 68  1  0  0  0  0
 29 30  1  0  0  0  0
 29 69  1  0  0  0  0
 29 70  1  0  0  0  0
 30 31  1  0  0  0  0
 30 71  1  0  0  0  0
 30 72  1  0  0  0  0
 31 32  1  0  0  0  0
 31 73  1  0  0  0  0
 31 74  1  0  0  0  0
 32 34  1  0  0  0  0
 32 75  1  0  0  0  0
 32 76  1  0  0  0  0
 33 77  1  0  0  0  0
 33 78  1  0  0  0  0
 34 79  1  0  0  0  0
M  CHG  2  33   1  34   1
M  END
>  <Name>
ZINC14733558

>  <reference>
BDB50088963

>  <quality>
0.783

>  <status>
decoy

$$$$
