ZINC17038470
 OpenBabel12162114133D

 80 85  0  0  1  0  0  0  0  0999 V2000
   -5.8863    2.9907   -0.5998 C   0  0  0  0  0  0  0  0  0  0  0  0
   -3.7427    3.7514    0.2291 C   0  0  0  0  0  0  0  0  0  0  0  0
   -2.2558    3.3989    0.3124 C   0  0  0  0  0  0  0  0  0  0  0  0
   -2.0830    2.1322    1.1551 C   0  0  1  0  0  0  0  0  0  0  0  0
   -2.8983    0.9964    0.5307 C   0  0  0  0  0  0  0  0  0  0  0  0
   -4.3664    1.4192    0.4397 C   0  0  0  0  0  0  0  0  0  0  0  0
   -0.6674    1.7568    1.1901 N   0  0  0  0  0  0  0  0  0  0  0  0
    0.0412    1.4541   -0.0559 C   0  0  0  0  0  0  0  0  0  0  0  0
   -0.0168    1.6899    2.3686 C   0  0  0  0  0  0  0  0  0  0  0  0
   -0.6318    1.8151    3.4109 O   0  0  0  0  0  0  0  0  0  0  0  0
    1.4349    1.4658    2.3946 C   0  0  0  0  0  0  0  0  0  0  0  0
    2.2404    1.2089    1.3247 C   0  0  0  0  0  0  0  0  0  0  0  0
    3.5215    1.0621    1.7402 N   0  0  0  0  0  0  0  0  0  0  0  0
    3.6034    1.2092    3.1095 C   0  0  0  0  0  0  0  0  0  0  0  0
    2.3070    1.4678    3.5834 C   0  0  0  0  0  0  0  0  0  0  0  0
    2.0867    1.6613    4.9445 C   0  0  0  0  0  0  0  0  0  0  0  0
    3.1466    1.5977    5.8229 C   0  0  0  0  0  0  0  0  0  0  0  0
    4.4277    1.3423    5.3565 C   0  0  0  0  0  0  0  0  0  0  0  0
    4.6600    1.1489    4.0120 C   0  0  0  0  0  0  0  0  0  0  0  0
    4.6587    0.7815    0.8602 C   0  0  0  0  0  0  0  0  0  0  0  0
    4.9108   -0.7270    0.8180 C   0  0  1  0  0  0  0  0  0  0  0  0
    3.7148   -1.4271    0.1668 C   0  0  0  0  0  0  0  0  0  0  0  0
    4.0008   -2.9285    0.0740 C   0  0  0  0  0  0  0  0  0  0  0  0
    5.2874   -3.1494   -0.7246 C   0  0  0  0  0  0  0  0  0  0  0  0
    6.1715   -1.0116   -0.0014 C   0  0  0  0  0  0  0  0  0  0  0  0
    7.6775   -2.7645   -0.7222 C   0  0  0  0  0  0  0  0  0  0  0  0
    8.0060   -4.2477   -0.5401 C   0  0  0  0  0  0  0  0  0  0  0  0
    9.3149   -4.5594   -1.2188 C   0  0  0  0  0  0  0  0  0  0  0  0
    9.3274   -4.9618   -2.5414 C   0  0  0  0  0  0  0  0  0  0  0  0
   10.5260   -5.2433   -3.1700 C   0  0  0  0  0  0  0  0  0  0  0  0
   11.7176   -5.1344   -2.4715 C   0  0  0  0  0  0  0  0  0  0  0  0
   11.7045   -4.7342   -1.1376 C   0  0  0  0  0  0  0  0  0  0  0  0
   10.5000   -4.4478   -0.5159 C   0  0  0  0  0  0  0  0  0  0  0  0
   12.9896   -4.7044   -0.6785 O   0  0  0  0  0  0  0  0  0  0  0  0
   13.7525   -5.4816   -1.6204 C   0  0  0  0  0  0  0  0  0  0  0  0
   13.0109   -5.3552   -2.8481 O   0  0  0  0  0  0  0  0  0  0  0  0
   -4.4672    2.6288   -0.4041 N   0  3  1  0  0  0  0  0  0  0  0  0
    6.4042   -2.4715   -0.0325 N   0  3  2  0  0  0  0  0  0  0  0  0
   -5.9495    3.8786   -1.2461 H   0  0  0  0  0  0  0  0  0  0  0  0
   -6.3418    3.2171    0.3755 H   0  0  0  0  0  0  0  0  0  0  0  0
   -6.4215    2.1531   -1.0709 H   0  0  0  0  0  0  0  0  0  0  0  0
   -4.1383    3.9197    1.2416 H   0  0  0  0  0  0  0  0  0  0  0  0
   -3.8730    4.6607   -0.3761 H   0  0  0  0  0  0  0  0  0  0  0  0
   -1.7063    4.2286    0.7811 H   0  0  0  0  0  0  0  0  0  0  0  0
   -1.8629    3.2223   -0.6998 H   0  0  0  0  0  0  0  0  0  0  0  0
   -2.4352    2.3196    2.1802 H   0  0  0  0  0  0  0  0  0  0  0  0
   -2.8145    0.0957    1.1566 H   0  0  0  0  0  0  0  0  0  0  0  0
   -2.5156    0.7810   -0.4778 H   0  0  0  0  0  0  0  0  0  0  0  0
   -4.7495    1.6410    1.4467 H   0  0  0  0  0  0  0  0  0  0  0  0
   -4.9560    0.6070   -0.0105 H   0  0  0  0  0  0  0  0  0  0  0  0
   -0.0894    2.3509   -0.6794 H   0  0  0  0  0  0  0  0  0  0  0  0
   -0.5443    0.6496   -0.5249 H   0  0  0  0  0  0  0  0  0  0  0  0
    1.0989    1.1834    0.0784 H   0  0  0  0  0  0  0  0  0  0  0  0
    1.9010    1.1324    0.2812 H   0  0  0  0  0  0  0  0  0  0  0  0
    1.0717    1.8639    5.3168 H   0  0  0  0  0  0  0  0  0  0  0  0
    2.9759    1.7502    6.8988 H   0  0  0  0  0  0  0  0  0  0  0  0
    5.2663    1.2937    6.0667 H   0  0  0  0  0  0  0  0  0  0  0  0
    5.6800    0.9471    3.6529 H   0  0  0  0  0  0  0  0  0  0  0  0
    4.4358    1.1440   -0.1542 H   0  0  0  0  0  0  0  0  0  0  0  0
    5.5548    1.2917    1.2432 H   0  0  0  0  0  0  0  0  0  0  0  0
    5.0448   -1.1034    1.8429 H   0  0  0  0  0  0  0  0  0  0  0  0
    2.8150   -1.2621    0.7777 H   0  0  0  0  0  0  0  0  0  0  0  0
    3.5551   -1.0211   -0.8430 H   0  0  0  0  0  0  0  0  0  0  0  0
    3.1642   -3.4321   -0.4324 H   0  0  0  0  0  0  0  0  0  0  0  0
    4.1218   -3.3426    1.0859 H   0  0  0  0  0  0  0  0  0  0  0  0
    5.4975   -4.2270   -0.7933 H   0  0  0  0  0  0  0  0  0  0  0  0
    5.1717   -2.7289   -1.7344 H   0  0  0  0  0  0  0  0  0  0  0  0
    7.0343   -0.5119    0.4633 H   0  0  0  0  0  0  0  0  0  0  0  0
    6.0354   -0.6392   -1.0274 H   0  0  0  0  0  0  0  0  0  0  0  0
    8.4813   -2.1529   -0.2864 H   0  0  0  0  0  0  0  0  0  0  0  0
    7.5761   -2.5375   -1.7937 H   0  0  0  0  0  0  0  0  0  0  0  0
    7.2077   -4.8587   -0.9866 H   0  0  0  0  0  0  0  0  0  0  0  0
    8.0863   -4.4766    0.5328 H   0  0  0  0  0  0  0  0  0  0  0  0
    8.3816   -5.0582   -3.0947 H   0  0  0  0  0  0  0  0  0  0  0  0
   10.5337   -5.5539   -4.2252 H   0  0  0  0  0  0  0  0  0  0  0  0
   10.4866   -4.1314    0.5375 H   0  0  0  0  0  0  0  0  0  0  0  0
   14.7592   -5.0543   -1.7391 H   0  0  0  0  0  0  0  0  0  0  0  0
   13.7883   -6.5349   -1.3053 H   0  0  0  0  0  0  0  0  0  0  0  0
   -4.0415    2.4320   -1.3212 H   0  0  0  0  0  0  0  0  0  0  0  0
    6.4581   -2.8213    0.9348 H   0  0  0  0  0  0  0  0  0  0  0  0
  1 37  1  0  0  0  0
  1 39  1  0  0  0  0
  1 40  1  0  0  0  0
  1 41  1  0  0  0  0
  2  3  1  0  0  0  0
  2 37  1  0  0  0  0
  2 42  1  0  0  0  0
  2 43  1  0  0  0  0
  3  4  1  0  0  0  0
  3 44  1  0  0  0  0
  3 45  1  0  0  0  0
  4  5  1  0  0  0  0
  4  7  1  0  0  0  0
  4 46  1  1  0  0  0
  5  6  1  0  0  0  0
  5 47  1  0  0  0  0
  5 48  1  0  0  0  0
  6 37  1  0  0  0  0
  6 49  1  0  0  0  0
  6 50  1  0  0  0  0
  7  8  1  0  0  0  0
  7  9  1  0  0  0  0
  8 51  1  0  0  0  0
  8 52  1  0  0  0  0
  8 53  1  0  0  0  0
  9 10  2  0  0  0  0
  9 11  1  0  0  0  0
 11 15  1  0  0  0  0
 11 12  2  0  0  0  0
 12 13  1  0  0  0  0
 12 54  1  0  0  0  0
 13 14  1  0  0  0  0
 13 20  1  0  0  0  0
 14 19  2  0  0  0  0
 14 15  1  0  0  0  0
 15 16  2  0  0  0  0
 16 17  1  0  0  0  0
 16 55  1  0  0  0  0
 17 18  2  0  0  0  0
 17 56  1  0  0  0  0
 18 19  1  0  0  0  0
 18 57  1  0  0  0  0
 19 58  1  0  0  0  0
 20 21  1  0  0  0  0
 20 59  1  0  0  0  0
 20 60  1  0  0  0  0
 21 25  1  0  0  0  0
 21 22  1  0  0  0  0
 21 61  1  1  0  0  0
 22 23  1  0  0  0  0
 22 62  1  0  0  0  0
 22 63  1  0  0  0  0
 23 24  1  0  0  0  0
 23 64  1  0  0  0  0
 23 65  1  0  0  0  0
 24 38  1  0  0  0  0
 24 66  1  0  0  0  0
 24 67  1  0  0  0  0
 25 38  1  0  0  0  0
 25 68  1  0  0  0  0
 25 69  1  0  0  0  0
 26 27  1  0  0  0  0
 26 38  1  0  0  0  0
 26 70  1  0  0  0  0
 26 71  1  0  0  0  0
 27 28  1  0  0  0  0
 27 72  1  0  0  0  0
 27 73  1  0  0  0  0
 28 33  2  0  0  0  0
 28 29  1  0  0  0  0
 29 30  2  0  0  0  0
 29 74  1  0  0  0  0
 30 31  1  0  0  0  0
 30 75  1  0  0  0  0
 31 36  1  0  0  0  0
 31 32  2  0  0  0  0
 32 33  1  0  0  0  0
 32 34  1  0  0  0  0
 33 76  1  0  0  0  0
 34 35  1  0  0  0  0
 35 36  1  0  0  0  0
 35 77  1  0  0  0  0
 35 78  1  0  0  0  0
 37 79  1  6  0  0  0
 38 80  1  1  0  0  0
M  CHG  2  37   1  38   1
M  END
>  <Name>
ZINC17038470

>  <reference>
BDB50088963

>  <quality>
0.786

>  <status>
decoy

$$$$
