ZINC14962480
 OpenBabel12162114133D

 65 70  0  0  1  0  0  0  0  0999 V2000
    3.2994    7.0526    1.5509 C   0  0  0  0  0  0  0  0  0  0  0  0
    4.3375    6.7181    0.5728 N   0  0  0  0  0  0  0  0  0  0  0  0
    5.3642    7.5235    0.2011 C   0  0  0  0  0  0  0  0  0  0  0  0
    6.1162    6.8797   -0.7262 C   0  0  0  0  0  0  0  0  0  0  0  0
    5.5489    5.6228   -0.9434 C   0  0  0  0  0  0  0  0  0  0  0  0
    4.4365    5.5311   -0.1210 C   0  0  0  0  0  0  0  0  0  0  0  0
    3.5634    4.4285   -0.0177 C   0  0  0  0  0  0  0  0  0  0  0  0
    2.2204    4.5816   -0.3040 C   0  0  0  0  0  0  0  0  0  0  0  0
    1.1428    3.5820   -0.1292 C   0  0  0  0  0  0  0  0  0  0  0  0
    1.1262    2.2740    0.3385 C   0  0  0  0  0  0  0  0  0  0  0  0
   -0.0760    1.5750    0.3838 C   0  0  0  0  0  0  0  0  0  0  0  0
   -1.2534    2.1898   -0.0456 C   0  0  0  0  0  0  0  0  0  0  0  0
   -1.2373    3.4887   -0.5034 C   0  0  0  0  0  0  0  0  0  0  0  0
   -0.0420    4.2002   -0.5548 C   0  0  0  0  0  0  0  0  0  0  0  0
    0.2439    5.4941   -0.9712 N   0  0  0  0  0  0  0  0  0  0  0  0
    1.5527    5.7715   -0.8466 C   0  0  0  0  0  0  0  0  0  0  0  0
    2.0912    6.8261   -1.1332 O   0  0  0  0  0  0  0  0  0  0  0  0
   -0.1055    0.1774    0.8816 C   0  0  0  0  0  0  0  0  0  0  0  0
   -1.3074   -0.5326    0.9309 C   0  0  0  0  0  0  0  0  0  0  0  0
   -1.2813   -1.8377    1.4051 C   0  0  0  0  0  0  0  0  0  0  0  0
   -0.0721   -2.3866    1.8100 C   0  0  0  0  0  0  0  0  0  0  0  0
    1.0439   -1.6873    1.7498 N   0  0  0  0  0  0  0  0  0  0  0  0
    1.0663   -0.4487    1.3017 C   0  0  0  0  0  0  0  0  0  0  0  0
   -2.4254   -2.5684    1.4722 O   0  0  0  0  0  0  0  0  0  0  0  0
   -2.3146   -3.9028    1.9713 C   0  0  0  0  0  0  0  0  0  0  0  0
   -3.6949   -4.5630    1.9727 C   0  0  2  0  0  0  0  0  0  0  0  0
   -3.5985   -5.9451    2.6219 C   0  0  0  0  0  0  0  0  0  0  0  0
   -4.9766   -6.5444    2.7347 C   0  0  0  0  0  0  0  0  0  0  0  0
   -5.7830   -6.4960    3.8067 C   0  0  0  0  0  0  0  0  0  0  0  0
   -6.9558   -7.1478    3.5381 N   0  0  0  0  0  0  0  0  0  0  0  0
   -6.9286   -7.6515    2.2569 C   0  0  0  0  0  0  0  0  0  0  0  0
   -5.6876   -7.2956    1.6974 C   0  0  0  0  0  0  0  0  0  0  0  0
   -5.3779   -7.6764    0.3906 C   0  0  0  0  0  0  0  0  0  0  0  0
   -6.2831   -8.3941   -0.3395 C   0  0  0  0  0  0  0  0  0  0  0  0
   -7.5083   -8.7480    0.2079 C   0  0  0  0  0  0  0  0  0  0  0  0
   -7.8347   -8.3823    1.4957 C   0  0  0  0  0  0  0  0  0  0  0  0
   -4.1939   -4.7153    0.5946 N   0  3  0  0  0  0  0  0  0  0  0  0
    3.3661    6.2195    2.2661 H   0  0  0  0  0  0  0  0  0  0  0  0
    2.3721    6.8866    0.9829 H   0  0  0  0  0  0  0  0  0  0  0  0
    3.3647    8.0468    2.0172 H   0  0  0  0  0  0  0  0  0  0  0  0
    5.5557    8.5349    0.5890 H   0  0  0  0  0  0  0  0  0  0  0  0
    7.0148    7.2779   -1.2201 H   0  0  0  0  0  0  0  0  0  0  0  0
    5.9153    4.8509   -1.6362 H   0  0  0  0  0  0  0  0  0  0  0  0
    3.9516    3.4466    0.2908 H   0  0  0  0  0  0  0  0  0  0  0  0
    2.0582    1.7936    0.6711 H   0  0  0  0  0  0  0  0  0  0  0  0
   -2.2014    1.6326   -0.0181 H   0  0  0  0  0  0  0  0  0  0  0  0
   -2.1731    3.9659   -0.8298 H   0  0  0  0  0  0  0  0  0  0  0  0
   -0.4582    6.1568   -1.3300 H   0  0  0  0  0  0  0  0  0  0  0  0
   -2.2500   -0.0701    0.6027 H   0  0  0  0  0  0  0  0  0  0  0  0
   -0.0448   -3.4198    2.1864 H   0  0  0  0  0  0  0  0  0  0  0  0
    2.0203    0.0972    1.2587 H   0  0  0  0  0  0  0  0  0  0  0  0
   -1.6335   -4.4796    1.3283 H   0  0  0  0  0  0  0  0  0  0  0  0
   -1.9188   -3.8800    2.9974 H   0  0  0  0  0  0  0  0  0  0  0  0
   -4.3892   -3.9256    2.5399 H   0  0  0  0  0  0  0  0  0  0  0  0
   -3.1575   -5.8502    3.6252 H   0  0  0  0  0  0  0  0  0  0  0  0
   -2.9650   -6.5976    2.0031 H   0  0  0  0  0  0  0  0  0  0  0  0
   -5.5374   -6.0051    4.7599 H   0  0  0  0  0  0  0  0  0  0  0  0
   -7.7419   -7.2469    4.1963 H   0  0  0  0  0  0  0  0  0  0  0  0
   -4.4087   -7.3998   -0.0499 H   0  0  0  0  0  0  0  0  0  0  0  0
   -6.0387   -8.6937   -1.3693 H   0  0  0  0  0  0  0  0  0  0  0  0
   -8.2261   -9.3263   -0.3923 H   0  0  0  0  0  0  0  0  0  0  0  0
   -8.8086   -8.6674    1.9203 H   0  0  0  0  0  0  0  0  0  0  0  0
   -3.5344   -5.2986    0.0601 H   0  0  0  0  0  0  0  0  0  0  0  0
   -4.2578   -3.7861    0.1548 H   0  0  0  0  0  0  0  0  0  0  0  0
   -5.1228   -5.1601    0.6041 H   0  0  0  0  0  0  0  0  0  0  0  0
  1  2  1  0  0  0  0
  1 38  1  0  0  0  0
  1 39  1  0  0  0  0
  1 40  1  0  0  0  0
  2  6  1  0  0  0  0
  2  3  1  0  0  0  0
  3  4  2  0  0  0  0
  3 41  1  0  0  0  0
  4  5  1  0  0  0  0
  4 42  1  0  0  0  0
  5  6  2  0  0  0  0
  5 43  1  0  0  0  0
  6  7  1  0  0  0  0
  7  8  2  0  0  0  0
  7 44  1  0  0  0  0
  8 16  1  0  0  0  0
  8  9  1  0  0  0  0
  9 14  2  0  0  0  0
  9 10  1  0  0  0  0
 10 11  2  0  0  0  0
 10 45  1  0  0  0  0
 11 12  1  0  0  0  0
 11 18  1  0  0  0  0
 12 13  2  0  0  0  0
 12 46  1  0  0  0  0
 13 14  1  0  0  0  0
 13 47  1  0  0  0  0
 14 15  1  0  0  0  0
 15 16  1  0  0  0  0
 15 48  1  0  0  0  0
 16 17  2  0  0  0  0
 18 23  2  0  0  0  0
 18 19  1  0  0  0  0
 19 20  2  0  0  0  0
 19 49  1  0  0  0  0
 20 21  1  0  0  0  0
 20 24  1  0  0  0  0
 21 22  2  0  0  0  0
 21 50  1  0  0  0  0
 22 23  1  0  0  0  0
 23 51  1  0  0  0  0
 24 25  1  0  0  0  0
 25 26  1  0  0  0  0
 25 52  1  0  0  0  0
 25 53  1  0  0  0  0
 26 27  1  0  0  0  0
 26 37  1  0  0  0  0
 26 54  1  1  0  0  0
 27 28  1  0  0  0  0
 27 55  1  0  0  0  0
 27 56  1  0  0  0  0
 28 32  1  0  0  0  0
 28 29  2  0  0  0  0
 29 30  1  0  0  0  0
 29 57  1  0  0  0  0
 30 31  1  0  0  0  0
 30 58  1  0  0  0  0
 31 36  2  0  0  0  0
 31 32  1  0  0  0  0
 32 33  2  0  0  0  0
 33 34  1  0  0  0  0
 33 59  1  0  0  0  0
 34 35  2  0  0  0  0
 34 60  1  0  0  0  0
 35 36  1  0  0  0  0
 35 61  1  0  0  0  0
 36 62  1  0  0  0  0
 37 63  1  0  0  0  0
 37 64  1  0  0  0  0
 37 65  1  0  0  0  0
M  CHG  1  37   1
M  END
>  <Name>
ZINC14962480

>  <reference>
BDB50088963

>  <quality>
0.778

>  <status>
decoy

$$$$
