BDB50096105
 OpenBabel12162114133D

 55 58  0  0  0  0  0  0  0  0999 V2000
    0.7025   -0.8639   -0.0103 C   0  0  0  0  0  0  0  0  0  0  0  0
    1.0885    0.4289   -0.0093 N   0  0  0  0  0  0  0  0  0  0  0  0
    0.0703    1.1857   -0.0054 N   0  0  0  0  0  0  0  0  0  0  0  0
   -1.0269    0.4332   -0.0011 C   0  0  0  0  0  0  0  0  0  0  0  0
   -0.6792   -0.9032   -0.0026 C   0  0  0  0  0  0  0  0  0  0  0  0
    1.9879   -9.7427   -0.0954 S   0  0  0  0  0  0  0  0  0  0  0  0
    1.5265   -2.1117   -0.0177 C   0  0  0  0  0  0  0  0  0  0  0  0
   -2.4387    0.9385    0.0011 C   0  0  0  0  0  0  0  0  0  0  0  0
    0.9570   -3.3457    0.0396 N   0  0  0  0  0  0  0  0  0  0  0  0
    3.7269   -9.1934   -0.0520 C   0  0  0  0  0  0  0  0  0  0  0  0
    1.7941   -4.4674    0.0582 C   0  0  0  0  0  0  0  0  0  0  0  0
    2.4476    0.9604   -0.0038 C   0  0  0  0  0  0  0  0  0  0  0  0
    4.2159   -7.8600    0.0131 C   0  0  0  0  0  0  0  0  0  0  0  0
    5.9694   -0.4202    0.0019 C   0  0  0  0  0  0  0  0  0  0  0  0
    3.1161   -4.3478   -0.0681 N   0  0  0  0  0  0  0  0  0  0  0  0
    1.2379   -5.6546    0.2157 N   0  0  0  0  0  0  0  0  0  0  0  0
    3.3484   -6.6683    0.0647 C   0  0  0  0  0  0  0  0  0  0  0  0
    3.5485    0.1337    0.0011 C   0  0  0  0  0  0  0  0  0  0  0  0
    4.8563    0.5837    0.0029 C   0  0  0  0  0  0  0  0  0  0  0  0
    0.9660   -8.7707   -0.6506 O   0  0  0  0  0  0  0  0  0  0  0  0
    1.9341  -10.9610   -0.9936 O   0  0  0  0  0  0  0  0  0  0  0  0
    5.7280   -1.6743    0.0016 N   0  3  0  0  0  0  0  0  0  0  0  0
    2.7382   -2.0941   -0.0595 O   0  0  0  0  0  0  0  0  0  0  0  0
    1.5487  -10.2362    1.4744 N   0  0  0  0  0  0  0  0  0  0  0  0
    3.9196   -5.3989   -0.0750 C   0  0  0  0  0  0  0  0  0  0  0  0
    1.9952   -6.7396    0.2376 C   0  0  0  0  0  0  0  0  0  0  0  0
   -3.3081   -0.1321   -0.0866 F   0  0  0  0  0  0  0  0  0  0  0  0
   -2.6294    1.7772   -1.0759 F   0  0  0  0  0  0  0  0  0  0  0  0
   -2.6777    1.6304    1.1690 F   0  0  0  0  0  0  0  0  0  0  0  0
    7.3278   -0.0058    0.0008 N   0  0  0  0  0  0  0  0  0  0  0  0
    2.6752    2.3364   -0.0029 C   0  0  0  0  0  0  0  0  0  0  0  0
    4.6516  -10.2256   -0.0844 C   0  0  0  0  0  0  0  0  0  0  0  0
    5.5761   -7.6406    0.0241 C   0  0  0  0  0  0  0  0  0  0  0  0
    5.0766    1.9535    0.0024 C   0  0  0  0  0  0  0  0  0  0  0  0
    3.9827    2.8192    0.0007 C   0  0  0  0  0  0  0  0  0  0  0  0
    6.0193   -9.9928   -0.0601 C   0  0  0  0  0  0  0  0  0  0  0  0
    6.4895   -8.6918   -0.0094 C   0  0  0  0  0  0  0  0  0  0  0  0
   -1.3216   -1.7590    0.0012 H   0  0  0  0  0  0  0  0  0  0  0  0
   -0.0264   -3.4519    0.0845 H   0  0  0  0  0  0  0  0  0  0  0  0
    3.3819   -0.9233    0.0037 H   0  0  0  0  0  0  0  0  0  0  0  0
    4.8100   -2.0106    0.0025 H   0  0  0  0  0  0  0  0  0  0  0  0
    6.4826   -2.3217    0.0005 H   0  0  0  0  0  0  0  0  0  0  0  0
    1.7835  -11.1524    1.7839 H   0  0  0  0  0  0  0  0  0  0  0  0
    1.0745   -9.6110    2.0849 H   0  0  0  0  0  0  0  0  0  0  0  0
    4.9775   -5.2813   -0.1845 H   0  0  0  0  0  0  0  0  0  0  0  0
    1.5374   -7.6940    0.3941 H   0  0  0  0  0  0  0  0  0  0  0  0
    7.5673    0.9882    0.0007 H   0  0  0  0  0  0  0  0  0  0  0  0
    8.0740   -0.7187   -0.0001 H   0  0  0  0  0  0  0  0  0  0  0  0
    1.8502    3.0179   -0.0048 H   0  0  0  0  0  0  0  0  0  0  0  0
    4.2991  -11.2349   -0.1295 H   0  0  0  0  0  0  0  0  0  0  0  0
    5.9408   -6.6352    0.0593 H   0  0  0  0  0  0  0  0  0  0  0  0
    6.0738    2.3413    0.0032 H   0  0  0  0  0  0  0  0  0  0  0  0
    4.1510    3.8759    0.0022 H   0  0  0  0  0  0  0  0  0  0  0  0
    6.7058  -10.8133   -0.0805 H   0  0  0  0  0  0  0  0  0  0  0  0
    7.5413   -8.4961    0.0040 H   0  0  0  0  0  0  0  0  0  0  0  0
  2  1  1  0  0  0  0
  3  2  1  0  0  0  0
  3  4  2  0  0  0  0
  4  5  1  0  0  0  0
  5  1  2  0  0  0  0
  5 38  1  0  0  0  0
  6 10  1  0  0  0  0
  7  1  1  0  0  0  0
  8  4  1  0  0  0  0
  9  7  1  0  0  0  0
  9 39  1  0  0  0  0
 10 13  2  0  0  0  0
 11  9  1  0  0  0  0
 12  2  1  0  0  0  0
 13 17  1  0  0  0  0
 14 19  1  0  0  0  0
 15 11  2  0  0  0  0
 16 11  1  0  0  0  0
 17 26  1  0  0  0  0
 17 25  2  0  0  0  0
 18 12  2  0  0  0  0
 18 40  1  0  0  0  0
 19 18  1  0  0  0  0
 20  6  2  0  0  0  0
 21  6  2  0  0  0  0
 22 14  2  0  0  0  0
 22 41  1  0  0  0  0
 22 42  1  0  0  0  0
 23  7  2  0  0  0  0
 24  6  1  0  0  0  0
 24 43  1  0  0  0  0
 24 44  1  0  0  0  0
 25 15  1  0  0  0  0
 25 45  1  0  0  0  0
 26 16  2  0  0  0  0
 26 46  1  0  0  0  0
 27  8  1  0  0  0  0
 28  8  1  0  0  0  0
 29  8  1  0  0  0  0
 30 14  1  0  0  0  0
 30 47  1  0  0  0  0
 30 48  1  0  0  0  0
 31 12  1  0  0  0  0
 31 49  1  0  0  0  0
 32 10  1  0  0  0  0
 32 50  1  0  0  0  0
 33 13  1  0  0  0  0
 33 51  1  0  0  0  0
 34 35  1  0  0  0  0
 34 19  2  0  0  0  0
 34 52  1  0  0  0  0
 35 31  2  0  0  0  0
 35 53  1  0  0  0  0
 36 37  1  0  0  0  0
 36 32  2  0  0  0  0
 36 54  1  0  0  0  0
 37 33  2  0  0  0  0
 37 55  1  0  0  0  0
M  CHG  1  22   1
M  END
>  <Name>
BDB50096105

>  <Target>
Factor Xa (fXa)

>  <Ki_in_nM>
0.001

>  <Kd_from_ITC>
false

>  <Uniprot_ID>
P00742

>  <source_organism>
Homo sapiens

$$$$
