BDB50243339
 OpenBabel12162114133D

 69 73  0  0  0  0  0  0  0  0999 V2000
   -7.3238    2.9220   -0.9876 C   0  0  0  0  0  0  0  0  0  0  0  0
   -6.2815    3.3586   -0.0375 C   0  0  0  0  0  0  0  0  0  0  0  0
   -6.5764    4.2625   -1.1674 C   0  0  0  0  0  0  0  0  0  0  0  0
    0.2459   -2.7317    0.0175 N   0  0  0  0  0  0  0  0  0  0  0  0
    2.1301   -1.7581    0.0006 C   0  0  0  0  0  0  0  0  0  0  0  0
    1.5082   -2.9386    0.0156 N   0  0  0  0  0  0  0  0  0  0  0  0
    1.1732   -0.7671   -0.0121 C   0  0  0  0  0  0  0  0  0  0  0  0
   -0.0253   -1.4350    0.0033 C   0  0  0  0  0  0  0  0  0  0  0  0
   -1.2804   -0.7512   -0.0134 C   0  0  0  0  0  0  0  0  0  0  0  0
   -1.2838    0.6542   -0.0114 N   0  0  0  0  0  0  0  0  0  0  0  0
   -0.0418    1.4605    0.1067 C   0  0  0  0  0  0  0  0  0  0  0  0
    1.3335    0.7053   -0.0720 C   0  0  0  0  0  0  0  0  0  0  0  0
    3.6119   -1.5476   -0.0048 C   0  0  0  0  0  0  0  0  0  0  0  0
    3.8894   -0.1975    0.0641 F   0  0  0  0  0  0  0  0  0  0  0  0
    4.1723   -2.1916    1.0794 F   0  0  0  0  0  0  0  0  0  0  0  0
    4.1429   -2.0693   -1.1662 F   0  0  0  0  0  0  0  0  0  0  0  0
   -2.3494   -1.3728   -0.0145 O   0  0  0  0  0  0  0  0  0  0  0  0
   -2.5159    1.3218   -0.0174 C   0  0  0  0  0  0  0  0  0  0  0  0
   -3.6988    0.5943   -0.0776 C   0  0  0  0  0  0  0  0  0  0  0  0
   -4.9213    1.2554   -0.0842 C   0  0  0  0  0  0  0  0  0  0  0  0
   -4.9604    2.6436   -0.0306 C   0  0  0  0  0  0  0  0  0  0  0  0
   -3.7778    3.3712    0.0296 C   0  0  0  0  0  0  0  0  0  0  0  0
   -2.5555    2.7102    0.0362 C   0  0  0  0  0  0  0  0  0  0  0  0
   -0.7079   -3.7565    0.0069 C   0  0  0  0  0  0  0  0  0  0  0  0
   -0.2954   -5.0840    0.0096 C   0  0  0  0  0  0  0  0  0  0  0  0
   -1.2390   -6.1044   -0.0008 C   0  0  0  0  0  0  0  0  0  0  0  0
   -2.5944   -5.7968   -0.0138 C   0  0  0  0  0  0  0  0  0  0  0  0
   -3.0068   -4.4696   -0.0165 C   0  0  0  0  0  0  0  0  0  0  0  0
   -2.0634   -3.4494   -0.0062 C   0  0  0  0  0  0  0  0  0  0  0  0
   -3.5446   -6.8238   -0.0242 O   0  0  0  0  0  0  0  0  0  0  0  0
   -2.9096   -8.1097   -0.0193 C   0  0  0  0  0  0  0  0  0  0  0  0
   -6.6094    3.8525    1.4234 C   0  0  0  0  0  0  0  0  0  0  0  0
   -6.5381    2.7982    2.4914 N   0  3  0  0  0  0  0  0  0  0  0  0
   -6.4561    3.4648    3.8061 C   0  0  0  0  0  0  0  0  0  0  0  0
   -6.2191    2.4195    4.9200 C   0  0  0  0  0  0  0  0  0  0  0  0
   -7.7200    1.8961    2.4909 C   0  0  0  0  0  0  0  0  0  0  0  0
   -9.0231    2.7140    2.6740 C   0  0  0  0  0  0  0  0  0  0  0  0
   -8.3383    3.0866   -0.5955 H   0  0  0  0  0  0  0  0  0  0  0  0
   -6.9507    2.1654   -1.6935 H   0  0  0  0  0  0  0  0  0  0  0  0
   -5.8230    4.1889   -1.9655 H   0  0  0  0  0  0  0  0  0  0  0  0
   -7.2098    5.1099   -0.8660 H   0  0  0  0  0  0  0  0  0  0  0  0
   -0.0895    2.2730   -0.6333 H   0  0  0  0  0  0  0  0  0  0  0  0
   -0.0425    1.9497    1.0919 H   0  0  0  0  0  0  0  0  0  0  0  0
    2.0251    1.0239    0.7218 H   0  0  0  0  0  0  0  0  0  0  0  0
    1.7718    0.9807   -1.0426 H   0  0  0  0  0  0  0  0  0  0  0  0
   -3.6674   -0.5044   -0.1200 H   0  0  0  0  0  0  0  0  0  0  0  0
   -5.8576    0.6801   -0.1318 H   0  0  0  0  0  0  0  0  0  0  0  0
   -3.8093    4.4699    0.0720 H   0  0  0  0  0  0  0  0  0  0  0  0
   -1.6192    3.2857    0.0838 H   0  0  0  0  0  0  0  0  0  0  0  0
    0.7774   -5.3268    0.0199 H   0  0  0  0  0  0  0  0  0  0  0  0
   -0.9132   -7.1550    0.0014 H   0  0  0  0  0  0  0  0  0  0  0  0
   -4.0796   -4.2269   -0.0269 H   0  0  0  0  0  0  0  0  0  0  0  0
   -2.3894   -2.3988   -0.0083 H   0  0  0  0  0  0  0  0  0  0  0  0
   -2.2864   -8.1958    0.8831 H   0  0  0  0  0  0  0  0  0  0  0  0
   -2.2688   -8.1940   -0.9093 H   0  0  0  0  0  0  0  0  0  0  0  0
   -3.6677   -8.9067   -0.0275 H   0  0  0  0  0  0  0  0  0  0  0  0
   -7.6196    4.2879    1.4306 H   0  0  0  0  0  0  0  0  0  0  0  0
   -5.9129    4.6624    1.6860 H   0  0  0  0  0  0  0  0  0  0  0  0
   -5.7066    2.2207    2.3019 H   0  0  0  0  0  0  0  0  0  0  0  0
   -7.3960    4.0009    4.0037 H   0  0  0  0  0  0  0  0  0  0  0  0
   -5.6245    4.1847    3.7989 H   0  0  0  0  0  0  0  0  0  0  0  0
   -5.2785    1.8850    4.7207 H   0  0  0  0  0  0  0  0  0  0  0  0
   -7.0515    1.7005    4.9249 H   0  0  0  0  0  0  0  0  0  0  0  0
   -6.1590    2.9224    5.8964 H   0  0  0  0  0  0  0  0  0  0  0  0
   -7.7628    1.3523    1.5356 H   0  0  0  0  0  0  0  0  0  0  0  0
   -7.6267    1.1713    3.3131 H   0  0  0  0  0  0  0  0  0  0  0  0
   -9.1136    3.4373    1.8502 H   0  0  0  0  0  0  0  0  0  0  0  0
   -8.9767    3.2569    3.6296 H   0  0  0  0  0  0  0  0  0  0  0  0
   -9.8919    2.0393    2.6725 H   0  0  0  0  0  0  0  0  0  0  0  0
  1  3  1  0  0  0  0
  1 38  1  0  0  0  0
  1 39  1  0  0  0  0
  2  1  1  0  0  0  0
  2 32  1  0  0  0  0
  3  2  1  0  0  0  0
  3 40  1  0  0  0  0
  3 41  1  0  0  0  0
  4 24  1  0  0  0  0
  4  8  1  0  0  0  0
  5  6  2  0  0  0  0
  5 13  1  0  0  0  0
  6  4  1  0  0  0  0
  7  5  1  0  0  0  0
  7 12  1  0  0  0  0
  7  8  2  0  0  0  0
  8  9  1  0  0  0  0
  9 10  1  0  0  0  0
  9 17  2  0  0  0  0
 10 18  1  0  0  0  0
 10 11  1  0  0  0  0
 11 12  1  0  0  0  0
 11 42  1  0  0  0  0
 11 43  1  0  0  0  0
 12 44  1  0  0  0  0
 12 45  1  0  0  0  0
 13 14  1  0  0  0  0
 13 15  1  0  0  0  0
 13 16  1  0  0  0  0
 18 19  2  0  0  0  0
 19 20  1  0  0  0  0
 19 46  1  0  0  0  0
 20 21  2  0  0  0  0
 20 47  1  0  0  0  0
 21 22  1  0  0  0  0
 21  2  1  0  0  0  0
 22 23  2  0  0  0  0
 22 48  1  0  0  0  0
 23 18  1  0  0  0  0
 23 49  1  0  0  0  0
 24 25  2  0  0  0  0
 25 26  1  0  0  0  0
 25 50  1  0  0  0  0
 26 27  2  0  0  0  0
 26 51  1  0  0  0  0
 27 28  1  0  0  0  0
 27 30  1  0  0  0  0
 28 29  2  0  0  0  0
 28 52  1  0  0  0  0
 29 24  1  0  0  0  0
 29 53  1  0  0  0  0
 30 31  1  0  0  0  0
 31 54  1  0  0  0  0
 31 55  1  0  0  0  0
 31 56  1  0  0  0  0
 32 33  1  0  0  0  0
 32 57  1  0  0  0  0
 32 58  1  0  0  0  0
 33 34  1  0  0  0  0
 33 36  1  0  0  0  0
 33 59  1  0  0  0  0
 34 35  1  0  0  0  0
 34 60  1  0  0  0  0
 34 61  1  0  0  0  0
 35 62  1  0  0  0  0
 35 63  1  0  0  0  0
 35 64  1  0  0  0  0
 36 37  1  0  0  0  0
 36 65  1  0  0  0  0
 36 66  1  0  0  0  0
 37 67  1  0  0  0  0
 37 68  1  0  0  0  0
 37 69  1  0  0  0  0
M  CHG  1  33   1
M  END
>  <Name>
BDB50243339

>  <Target>
Factor Xa (fXa)

>  <Ki_in_nM>
0.02

>  <Kd_from_ITC>
false

>  <Uniprot_ID>
P00742

>  <source_organism>
Homo sapiens

$$$$
