BDB12751
 OpenBabel12162114133D

 57 60  0  0  0  0  0  0  0  0999 V2000
    1.3383   -0.6088    0.0019 C   0  0  0  0  0  0  0  0  0  0  0  0
    1.4133    0.7834    0.0003 C   0  0  0  0  0  0  0  0  0  0  0  0
    0.2643    1.5606   -0.0011 C   0  0  0  0  0  0  0  0  0  0  0  0
   -0.9741    0.9547   -0.0017 C   0  0  0  0  0  0  0  0  0  0  0  0
   -1.0279   -0.4254   -0.0004 C   0  0  0  0  0  0  0  0  0  0  0  0
    0.0977   -1.2331    0.0020 C   0  0  0  0  0  0  0  0  0  0  0  0
    2.6864    1.4698    0.0000 C   0  0  0  0  0  0  0  0  0  0  0  0
    2.7058    2.9070   -0.0002 N   0  0  0  0  0  0  0  0  0  0  0  0
    3.7785    0.8226    0.0000 N   0  3  0  0  0  0  0  0  0  0  0  0
   -1.0850   -3.4605    0.0046 C   0  0  0  0  0  0  0  0  0  0  0  0
   -0.6841   -4.7863    0.0014 C   0  0  0  0  0  0  0  0  0  0  0  0
    1.0575   -3.4111    0.0022 N   0  0  0  0  0  0  0  0  0  0  0  0
    0.0122   -2.6865    0.0041 N   0  0  0  0  0  0  0  0  0  0  0  0
   -2.5240   -3.0624    0.0072 C   0  0  0  0  0  0  0  0  0  0  0  0
   -2.8709   -1.8972    0.0201 O   0  0  0  0  0  0  0  0  0  0  0  0
   -3.5120   -4.0045   -0.0167 N   0  0  0  0  0  0  0  0  0  0  0  0
   -4.8625   -3.6230   -0.0210 C   0  0  0  0  0  0  0  0  0  0  0  0
   -6.6488   -1.9754    0.0457 C   0  0  0  0  0  0  0  0  0  0  0  0
   -5.2971   -2.2972    0.0454 C   0  0  0  0  0  0  0  0  0  0  0  0
   -5.7957   -4.6315   -0.0978 C   0  0  0  0  0  0  0  0  0  0  0  0
   -7.1324   -4.2971   -0.1014 C   0  0  0  0  0  0  0  0  0  0  0  0
   -7.5811   -3.0015   -0.0237 C   0  0  0  0  0  0  0  0  0  0  0  0
    0.6948   -4.6897    0.0004 C   0  0  0  0  0  0  0  0  0  0  0  0
    1.6377   -5.8597   -0.0019 C   0  0  0  0  0  0  0  0  0  0  0  0
   -9.0116   -2.7115   -0.0096 C   0  0  0  0  0  0  0  0  0  0  0  0
  -11.3497   -3.2460    0.0106 C   0  0  0  0  0  0  0  0  0  0  0  0
  -10.0303   -3.6872   -0.0071 C   0  0  0  0  0  0  0  0  0  0  0  0
   -9.3511   -1.3618    0.0072 C   0  0  0  0  0  0  0  0  0  0  0  0
  -10.6749   -0.9467    0.0243 C   0  0  0  0  0  0  0  0  0  0  0  0
  -11.6806   -1.8985    0.0260 C   0  0  0  0  0  0  0  0  0  0  0  0
  -10.6077   -6.1254    1.3913 N   0  0  0  0  0  0  0  0  0  0  0  0
   -9.8818   -5.5425   -0.0166 S   0  0  0  0  0  0  0  0  0  0  0  0
  -10.6555   -6.0552   -1.2133 O   0  0  0  0  0  0  0  0  0  0  0  0
   -8.5294   -6.2186   -0.0695 O   0  0  0  0  0  0  0  0  0  0  0  0
    2.2338   -1.1945    0.0030 H   0  0  0  0  0  0  0  0  0  0  0  0
    0.3390    2.6280   -0.0017 H   0  0  0  0  0  0  0  0  0  0  0  0
   -1.8707    1.5387   -0.0031 H   0  0  0  0  0  0  0  0  0  0  0  0
   -1.9892   -0.8953   -0.0014 H   0  0  0  0  0  0  0  0  0  0  0  0
    1.8246    3.4451   -0.0001 H   0  0  0  0  0  0  0  0  0  0  0  0
    3.5993    3.4029   -0.0003 H   0  0  0  0  0  0  0  0  0  0  0  0
    3.7779   -0.1700    0.0000 H   0  0  0  0  0  0  0  0  0  0  0  0
    4.6369    1.3146   -0.0002 H   0  0  0  0  0  0  0  0  0  0  0  0
   -1.2915   -5.6672    0.0000 H   0  0  0  0  0  0  0  0  0  0  0  0
   -3.2796   -4.9694   -0.0405 H   0  0  0  0  0  0  0  0  0  0  0  0
   -6.9654   -0.9547    0.0986 H   0  0  0  0  0  0  0  0  0  0  0  0
   -4.5726   -1.5115    0.0973 H   0  0  0  0  0  0  0  0  0  0  0  0
   -5.4893   -5.6552   -0.1536 H   0  0  0  0  0  0  0  0  0  0  0  0
   -7.8547   -5.0838   -0.1677 H   0  0  0  0  0  0  0  0  0  0  0  0
    2.2742   -5.6400    0.8712 H   0  0  0  0  0  0  0  0  0  0  0  0
    2.2734   -5.6373   -0.8750 H   0  0  0  0  0  0  0  0  0  0  0  0
    1.2218   -6.7289   -0.0031 H   0  0  0  0  0  0  0  0  0  0  0  0
  -12.1367   -3.9710    0.0125 H   0  0  0  0  0  0  0  0  0  0  0  0
   -8.5730   -0.6272    0.0068 H   0  0  0  0  0  0  0  0  0  0  0  0
  -10.9156    0.0958    0.0361 H   0  0  0  0  0  0  0  0  0  0  0  0
  -12.7071   -1.5966    0.0390 H   0  0  0  0  0  0  0  0  0  0  0  0
  -10.4570   -7.0694    1.6677 H   0  0  0  0  0  0  0  0  0  0  0  0
  -11.1254   -5.5132    1.9714 H   0  0  0  0  0  0  0  0  0  0  0  0
  1  2  2  0  0  0  0
  1  6  1  0  0  0  0
  1 35  1  0  0  0  0
  2  3  1  0  0  0  0
  2  7  1  0  0  0  0
  3  4  2  0  0  0  0
  3 36  1  0  0  0  0
  4  5  1  0  0  0  0
  4 37  1  0  0  0  0
  5  6  2  0  0  0  0
  5 38  1  0  0  0  0
  6 13  1  0  0  0  0
  7  9  2  0  0  0  0
  7  8  1  0  0  0  0
  8 39  1  0  0  0  0
  8 40  1  0  0  0  0
  9 41  1  0  0  0  0
  9 42  1  0  0  0  0
 10 11  2  0  0  0  0
 10 14  1  0  0  0  0
 11 43  1  0  0  0  0
 12 13  1  0  0  0  0
 13 10  1  0  0  0  0
 14 16  1  0  0  0  0
 14 15  2  0  0  0  0
 16 17  1  0  0  0  0
 16 44  1  0  0  0  0
 17 20  1  0  0  0  0
 18 19  1  0  0  0  0
 18 22  2  0  0  0  0
 18 45  1  0  0  0  0
 19 17  2  0  0  0  0
 19 46  1  0  0  0  0
 20 21  2  0  0  0  0
 20 47  1  0  0  0  0
 21 22  1  0  0  0  0
 21 48  1  0  0  0  0
 22 25  1  0  0  0  0
 23 12  2  0  0  0  0
 23 11  1  0  0  0  0
 23 24  1  0  0  0  0
 24 49  1  0  0  0  0
 24 50  1  0  0  0  0
 24 51  1  0  0  0  0
 25 28  1  0  0  0  0
 26 27  1  0  0  0  0
 26 30  2  0  0  0  0
 26 52  1  0  0  0  0
 27 25  2  0  0  0  0
 27 32  1  0  0  0  0
 28 29  2  0  0  0  0
 28 53  1  0  0  0  0
 29 30  1  0  0  0  0
 29 54  1  0  0  0  0
 30 55  1  0  0  0  0
 31 56  1  0  0  0  0
 31 57  1  0  0  0  0
 32 31  1  0  0  0  0
 32 34  2  0  0  0  0
 32 33  2  0  0  0  0
M  CHG  1   9   1
M  END
>  <Name>
BDB12751

>  <Target>
Factor Xa (fXa)

>  <Ki_in_nM>
0.013

>  <Kd_from_ITC>
false

>  <Uniprot_ID>
P00742

>  <source_organism>
Homo sapiens (human)

$$$$
