BDB50142111
 OpenBabel12162114133D

 66 70  0  0  0  0  0  0  0  0999 V2000
    1.2082   -0.8120   -0.0070 C   0  0  0  0  0  0  0  0  0  0  0  0
    2.4674   -1.6251   -0.0030 C   0  0  0  0  0  0  0  0  0  0  0  0
    1.2378    0.5832   -0.0122 C   0  0  0  0  0  0  0  0  0  0  0  0
    6.7934    7.8648    0.0773 N   0  0  0  0  0  0  0  0  0  0  0  0
    2.5734    2.6129    0.0182 C   0  0  0  0  0  0  0  0  0  0  0  0
    2.4311   -3.0080   -0.0015 N   0  0  0  0  0  0  0  0  0  0  0  0
    2.4698    1.2668   -0.0148 N   0  0  0  0  0  0  0  0  0  0  0  0
    7.8113    6.6884   -0.0006 C   0  0  0  0  0  0  0  0  0  0  0  0
    7.6355    5.2722    0.0806 C   0  0  0  0  0  0  0  0  0  0  0  0
    4.2238    9.6254   -2.7703 C   0  0  0  0  0  0  0  0  0  0  0  0
    3.6418   -3.7223   -0.0004 C   0  0  0  0  0  0  0  0  0  0  0  0
    4.8007   -3.0688   -0.0006 N   0  0  0  0  0  0  0  0  0  0  0  0
    3.8741    3.1994    0.0625 C   0  0  0  0  0  0  0  0  0  0  0  0
   -0.0192   -1.4659   -0.0023 C   0  0  0  0  0  0  0  0  0  0  0  0
    6.3310    4.5230    0.1517 C   0  0  0  0  0  0  0  0  0  0  0  0
    3.5743   -1.0920    0.0023 O   0  0  0  0  0  0  0  0  0  0  0  0
    4.9697    9.4503   -1.4763 C   0  0  0  0  0  0  0  0  0  0  0  0
    7.2676    9.1791   -0.3278 C   0  0  0  0  0  0  0  0  0  0  0  0
    5.3569    7.8890    0.3671 C   0  0  0  0  0  0  0  0  0  0  0  0
    1.5879    3.3583    0.0217 O   0  0  0  0  0  0  0  0  0  0  0  0
    4.6601    9.1171   -3.8087 O   0  0  0  0  0  0  0  0  0  0  0  0
    0.0435    1.2971   -0.0112 C   0  0  0  0  0  0  0  0  0  0  0  0
    5.0652    2.4703    0.0516 C   0  0  0  0  0  0  0  0  0  0  0  0
    3.9098    4.5678    0.1265 C   0  0  0  0  0  0  0  0  0  0  0  0
    6.2968    3.1258    0.0828 C   0  0  0  0  0  0  0  0  0  0  0  0
    5.1371    5.1830    0.1747 C   0  0  0  0  0  0  0  0  0  0  0  0
    6.5240    9.5044   -1.6794 C   0  0  0  0  0  0  0  0  0  0  0  0
    4.5827    8.0972   -0.9235 C   0  0  0  0  0  0  0  0  0  0  0  0
   -1.2076   -0.7456   -0.0014 C   0  0  0  0  0  0  0  0  0  0  0  0
    5.9676   -3.6995   -0.0003 C   0  0  0  0  0  0  0  0  0  0  0  0
    2.9951   10.2107   -2.7676 O   0  5  0  0  0  0  0  0  0  0  0  0
    6.0110   -5.0864   -0.0001 C   0  0  0  0  0  0  0  0  0  0  0  0
    3.6221   -5.1106    0.0000 C   0  0  0  0  0  0  0  0  0  0  0  0
   -1.1781    0.6409   -0.0056 C   0  0  0  0  0  0  0  0  0  0  0  0
   -2.7160   -1.5688    0.0049 Cl  0  0  0  0  0  0  0  0  0  0  0  0
    7.5239   -5.9026    0.0000 Cl  0  0  0  0  0  0  0  0  0  0  0  0
    4.8238   -5.8051    0.0001 C   0  0  0  0  0  0  0  0  0  0  0  0
    9.1098    7.1544   -0.1787 C   0  0  0  0  0  0  0  0  0  0  0  0
    8.7512    4.4504    0.0222 C   0  0  0  0  0  0  0  0  0  0  0  0
   10.0391    4.9516   -0.1163 C   0  0  0  0  0  0  0  0  0  0  0  0
   10.2159    6.3183   -0.2259 C   0  0  0  0  0  0  0  0  0  0  0  0
    1.5669   -3.4897   -0.0020 H   0  0  0  0  0  0  0  0  0  0  0  0
    3.2744    0.7875   -0.0287 H   0  0  0  0  0  0  0  0  0  0  0  0
   -0.0488   -2.5354    0.0006 H   0  0  0  0  0  0  0  0  0  0  0  0
    4.7140   10.2462   -0.8084 H   0  0  0  0  0  0  0  0  0  0  0  0
    8.3083    9.1500   -0.4940 H   0  0  0  0  0  0  0  0  0  0  0  0
    7.0062    9.8965    0.4034 H   0  0  0  0  0  0  0  0  0  0  0  0
    5.0660    6.9575    0.8113 H   0  0  0  0  0  0  0  0  0  0  0  0
    5.1421    8.6890    1.0435 H   0  0  0  0  0  0  0  0  0  0  0  0
    0.0679    2.3668   -0.0148 H   0  0  0  0  0  0  0  0  0  0  0  0
    5.0333    1.4013    0.0191 H   0  0  0  0  0  0  0  0  0  0  0  0
    3.0065    5.1413    0.1387 H   0  0  0  0  0  0  0  0  0  0  0  0
    7.2074    2.5646    0.0542 H   0  0  0  0  0  0  0  0  0  0  0  0
    5.1582    6.2511    0.2343 H   0  0  0  0  0  0  0  0  0  0  0  0
    6.8058   10.4876   -2.0147 H   0  0  0  0  0  0  0  0  0  0  0  0
    6.8100    8.7880   -2.4261 H   0  0  0  0  0  0  0  0  0  0  0  0
    3.5379    8.0792   -0.7200 H   0  0  0  0  0  0  0  0  0  0  0  0
    4.8416    7.3388   -1.6200 H   0  0  0  0  0  0  0  0  0  0  0  0
    6.8780   -3.1373   -0.0002 H   0  0  0  0  0  0  0  0  0  0  0  0
    2.6916   -5.6388    0.0002 H   0  0  0  0  0  0  0  0  0  0  0  0
   -2.0905    1.1998   -0.0046 H   0  0  0  0  0  0  0  0  0  0  0  0
    4.8346   -6.8750    0.0003 H   0  0  0  0  0  0  0  0  0  0  0  0
    9.2628    8.2081   -0.2844 H   0  0  0  0  0  0  0  0  0  0  0  0
    8.6147    3.3911    0.0861 H   0  0  0  0  0  0  0  0  0  0  0  0
   10.8804    4.2909   -0.1378 H   0  0  0  0  0  0  0  0  0  0  0  0
   11.1972    6.7276   -0.3460 H   0  0  0  0  0  0  0  0  0  0  0  0
  2  1  1  0  0  0  0
  3  1  2  0  0  0  0
  4  8  1  0  0  0  0
  5  7  1  0  0  0  0
  6  2  1  0  0  0  0
  6 42  1  0  0  0  0
  7  3  1  0  0  0  0
  7 43  1  0  0  0  0
  8  9  2  0  0  0  0
  9 15  1  0  0  0  0
 10 17  1  0  0  0  0
 11  6  1  0  0  0  0
 12 11  2  0  0  0  0
 13  5  1  0  0  0  0
 14  1  1  0  0  0  0
 14 44  1  0  0  0  0
 15 26  1  0  0  0  0
 15 25  2  0  0  0  0
 16  2  2  0  0  0  0
 17 28  1  0  0  0  0
 17 45  1  0  0  0  0
 18  4  1  0  0  0  0
 18 46  1  0  0  0  0
 18 47  1  0  0  0  0
 19  4  1  0  0  0  0
 19 48  1  0  0  0  0
 19 49  1  0  0  0  0
 20  5  2  0  0  0  0
 21 10  2  0  0  0  0
 22  3  1  0  0  0  0
 22 50  1  0  0  0  0
 23 13  2  0  0  0  0
 23 51  1  0  0  0  0
 24 13  1  0  0  0  0
 24 52  1  0  0  0  0
 25 23  1  0  0  0  0
 25 53  1  0  0  0  0
 26 24  2  0  0  0  0
 26 54  1  0  0  0  0
 27 18  1  0  0  0  0
 27 17  1  0  0  0  0
 27 55  1  0  0  0  0
 27 56  1  0  0  0  0
 28 19  1  0  0  0  0
 28 57  1  0  0  0  0
 28 58  1  0  0  0  0
 29 14  2  0  0  0  0
 30 12  1  0  0  0  0
 30 32  2  0  0  0  0
 30 59  1  0  0  0  0
 31 10  1  0  0  0  0
 32 37  1  0  0  0  0
 33 11  1  0  0  0  0
 33 60  1  0  0  0  0
 34 29  1  0  0  0  0
 34 22  2  0  0  0  0
 34 61  1  0  0  0  0
 35 29  1  0  0  0  0
 36 32  1  0  0  0  0
 37 33  2  0  0  0  0
 37 62  1  0  0  0  0
 38  8  1  0  0  0  0
 38 41  2  0  0  0  0
 38 63  1  0  0  0  0
 39  9  1  0  0  0  0
 39 64  1  0  0  0  0
 40 39  2  0  0  0  0
 40 65  1  0  0  0  0
 41 40  1  0  0  0  0
 41 66  1  0  0  0  0
M  CHG  1  31  -1
M  END
>  <Name>
BDB50142111

>  <Target>
Factor Xa (fXa)

>  <Ki_in_nM>
0.012

>  <IC50_in_nM>
0.4

>  <Kd_from_ITC>
false

>  <Uniprot_ID>
P00742

>  <source_organism>
Homo sapiens

$$$$
