BDB17122
 OpenBabel12162114133D

 59 62  0  0  0  0  0  0  0  0999 V2000
    1.2405   -0.6843   -0.0001 C   0  0  0  0  0  0  0  0  0  0  0  0
    1.2394    0.7055   -0.0001 C   0  0  0  0  0  0  0  0  0  0  0  0
    0.0355    1.3996   -0.0001 C   0  0  0  0  0  0  0  0  0  0  0  0
   -1.1674    0.7044   -0.0001 C   0  0  0  0  0  0  0  0  0  0  0  0
   -1.1662   -0.6851   -0.0002 C   0  0  0  0  0  0  0  0  0  0  0  0
    0.0374   -1.3797   -0.0002 C   0  0  0  0  0  0  0  0  0  0  0  0
    2.4680    1.4149    0.0000 N   0  0  0  0  0  0  0  0  0  0  0  0
    3.7428    0.7926   -0.0001 C   0  0  0  0  0  0  0  0  0  0  0  0
    3.8650   -0.4370   -0.0003 O   0  0  0  0  0  0  0  0  0  0  0  0
    4.9454    1.6243    0.0000 C   0  0  0  0  0  0  0  0  0  0  0  0
    6.2339    1.1307    0.0000 C   0  0  0  0  0  0  0  0  0  0  0  0
    4.9158    3.2893    0.0003 S   0  0  0  0  0  0  0  0  0  0  0  0
    7.1697    2.1607    0.0001 C   0  0  0  0  0  0  0  0  0  0  0  0
    6.5937    3.4299    0.0003 C   0  0  0  0  0  0  0  0  0  0  0  0
    6.6433   -0.5351   -0.0003 Cl  0  0  0  0  0  0  0  0  0  0  0  0
    0.0334    2.8648    0.0000 C   0  0  0  0  0  0  0  0  0  0  0  0
    1.1142    3.4629    0.0000 O   0  0  0  0  0  0  0  0  0  0  0  0
   -1.2041    3.5645    0.0001 N   0  0  0  0  0  0  0  0  0  0  0  0
   -1.3131    4.9849    0.0002 C   0  0  0  0  0  0  0  0  0  0  0  0
   -2.7061    6.8415    0.0004 C   0  0  0  0  0  0  0  0  0  0  0  0
   -1.6148    7.7017    0.0004 C   0  0  0  0  0  0  0  0  0  0  0  0
   -0.3314    7.1748    0.0003 C   0  0  0  0  0  0  0  0  0  0  0  0
   -0.1822    5.7953    0.0002 C   0  0  0  0  0  0  0  0  0  0  0  0
   -1.8528    9.4021    0.0006 Cl  0  0  0  0  0  0  0  0  0  0  0  0
   -2.6534   -1.5432   -0.0003 Cl  0  0  0  0  0  0  0  0  0  0  0  0
    8.6599    1.9260   -0.0064 C   0  0  0  0  0  0  0  0  0  0  0  0
    2.4530   -1.3844   -0.0001 O   0  0  0  0  0  0  0  0  0  0  0  0
    2.2306   -2.8019   -0.0002 C   0  0  0  0  0  0  0  0  0  0  0  0
   -2.5292    5.5246    0.0003 N   0  0  0  0  0  0  0  0  0  0  0  0
    9.4050    2.9371   -0.7969 N   0  0  0  0  0  0  0  0  0  0  0  0
    9.0187    3.2680   -2.1854 C   0  0  0  0  0  0  0  0  0  0  0  0
   10.6810    3.3744   -0.3174 C   0  0  0  0  0  0  0  0  0  0  0  0
   12.6665    4.4080   -0.2709 C   0  0  0  0  0  0  0  0  0  0  0  0
   12.2899    4.0456    1.1905 C   0  0  0  0  0  0  0  0  0  0  0  0
   11.4415    4.1359   -0.9805 N   0  3  0  0  0  0  0  0  0  0  0  0
   11.2145    2.9597    1.0002 C   0  0  0  0  0  0  0  0  0  0  0  0
   -2.1204    1.2538   -0.0001 H   0  0  0  0  0  0  0  0  0  0  0  0
    0.0377   -2.4797   -0.0002 H   0  0  0  0  0  0  0  0  0  0  0  0
    2.4322    2.4442    0.0001 H   0  0  0  0  0  0  0  0  0  0  0  0
    7.1503    4.3787    0.0005 H   0  0  0  0  0  0  0  0  0  0  0  0
   -2.0733    3.0118    0.0001 H   0  0  0  0  0  0  0  0  0  0  0  0
   -3.7257    7.2545    0.0005 H   0  0  0  0  0  0  0  0  0  0  0  0
    0.5479    7.8357    0.0003 H   0  0  0  0  0  0  0  0  0  0  0  0
    0.8219    5.3462    0.0001 H   0  0  0  0  0  0  0  0  0  0  0  0
    8.8638    0.9282   -0.4222 H   0  0  0  0  0  0  0  0  0  0  0  0
    9.0288    1.9416    1.0298 H   0  0  0  0  0  0  0  0  0  0  0  0
    1.6519   -3.0705   -0.8963 H   0  0  0  0  0  0  0  0  0  0  0  0
    1.6519   -3.0706    0.8959 H   0  0  0  0  0  0  0  0  0  0  0  0
    3.1914   -3.3374   -0.0002 H   0  0  0  0  0  0  0  0  0  0  0  0
    7.9615    3.5618   -2.1081 H   0  0  0  0  0  0  0  0  0  0  0  0
    9.0372    2.3002   -2.7080 H   0  0  0  0  0  0  0  0  0  0  0  0
    9.6427    4.0317   -2.6726 H   0  0  0  0  0  0  0  0  0  0  0  0
   12.9257    5.4747   -0.3424 H   0  0  0  0  0  0  0  0  0  0  0  0
   13.4733    3.7516   -0.6289 H   0  0  0  0  0  0  0  0  0  0  0  0
   13.1627    3.6321    1.7171 H   0  0  0  0  0  0  0  0  0  0  0  0
   11.8627    4.9208    1.7019 H   0  0  0  0  0  0  0  0  0  0  0  0
   11.2144    4.5145   -1.9111 H   0  0  0  0  0  0  0  0  0  0  0  0
   10.4409    3.0432    1.7778 H   0  0  0  0  0  0  0  0  0  0  0  0
   11.6790    1.9645    0.9380 H   0  0  0  0  0  0  0  0  0  0  0  0
  1  2  2  0  0  0  0
  1  6  1  0  0  0  0
  1 27  1  0  0  0  0
  2  3  1  0  0  0  0
  2  7  1  0  0  0  0
  3  4  2  0  0  0  0
  3 16  1  0  0  0  0
  4  5  1  0  0  0  0
  4 37  1  0  0  0  0
  5  6  2  0  0  0  0
  5 25  1  0  0  0  0
  6 38  1  0  0  0  0
  7  8  1  0  0  0  0
  7 39  1  0  0  0  0
  8 10  1  0  0  0  0
  8  9  2  0  0  0  0
 10 11  2  0  0  0  0
 11 13  1  0  0  0  0
 11 15  1  0  0  0  0
 12 10  1  0  0  0  0
 12 14  1  0  0  0  0
 13 14  2  0  0  0  0
 13 26  1  0  0  0  0
 14 40  1  0  0  0  0
 16 18  1  0  0  0  0
 16 17  2  0  0  0  0
 18 19  1  0  0  0  0
 18 41  1  0  0  0  0
 20 21  1  0  0  0  0
 20 42  1  0  0  0  0
 21 22  2  0  0  0  0
 21 24  1  0  0  0  0
 22 23  1  0  0  0  0
 22 43  1  0  0  0  0
 23 19  2  0  0  0  0
 23 44  1  0  0  0  0
 26 30  1  0  0  0  0
 26 45  1  0  0  0  0
 26 46  1  0  0  0  0
 27 28  1  0  0  0  0
 28 47  1  0  0  0  0
 28 48  1  0  0  0  0
 28 49  1  0  0  0  0
 29 19  1  0  0  0  0
 29 20  2  0  0  0  0
 30 32  1  0  0  0  0
 30 31  1  0  0  0  0
 31 50  1  0  0  0  0
 31 51  1  0  0  0  0
 31 52  1  0  0  0  0
 32 35  2  0  0  0  0
 33 53  1  0  0  0  0
 33 54  1  0  0  0  0
 34 33  1  0  0  0  0
 34 55  1  0  0  0  0
 34 56  1  0  0  0  0
 35 33  1  0  0  0  0
 35 57  1  0  0  0  0
 36 32  1  0  0  0  0
 36 34  1  0  0  0  0
 36 58  1  0  0  0  0
 36 59  1  0  0  0  0
M  CHG  1  35   1
M  END
>  <Name>
BDB17122

>  <Target>
Factor Xa (fXa)

>  <Ki_in_nM>
0.004

>  <Kd_from_ITC>
false

>  <Uniprot_ID>
P00742

>  <source_organism>
Homo sapiens (human)

$$$$
