ZINC00086200
 OpenBabel12232117173D

 26 27  0  0  0  0  0  0  0  0999 V2000
    0.2180    1.9870    4.9200 C   0  0  0  0  0  0  0  0  0  0  0  0
    0.7710    1.4840    3.6600 N   0  0  0  0  0  0  0  0  0  0  0  0
    0.1100    1.6910    2.5040 C   0  0  0  0  0  0  0  0  0  0  0  0
   -0.9460    2.2950    2.5060 O   0  0  0  0  0  0  0  0  0  0  0  0
    0.6670    1.1850    1.2360 C   0  0  0  0  0  0  0  0  0  0  0  0
    1.8800    0.4920    1.2280 C   0  0  0  0  0  0  0  0  0  0  0  0
    2.3950    0.0220    0.0400 C   0  0  0  0  0  0  0  0  0  0  0  0
    1.7170    0.2340   -1.1510 C   0  0  0  0  0  0  0  0  0  0  0  0
    0.5180    0.9170   -1.1600 C   0  0  0  0  0  0  0  0  0  0  0  0
   -0.0180    1.3980    0.0290 C   0  0  0  0  0  0  0  0  0  0  0  0
   -1.5520    2.2650    0.0220 S   0  0  0  0  0  0  0  0  0  0  0  0
   -1.0860    3.9570    0.1780 C   0  0  0  0  0  0  0  0  0  0  0  0
    0.2560    4.3180    0.1530 C   0  0  0  0  0  0  0  0  0  0  0  0
    0.6170    5.6430    0.2750 C   0  0  0  0  0  0  0  0  0  0  0  0
   -0.3510    6.6240    0.4230 C   0  0  0  0  0  0  0  0  0  0  0  0
   -1.6860    6.2870    0.4490 C   0  0  0  0  0  0  0  0  0  0  0  0
   -2.0700    4.9490    0.3220 C   0  0  0  0  0  0  0  0  0  0  0  0
   -3.4970    4.5810    0.3420 C   0  0  0  0  0  0  0  0  0  0  0  0
   -3.8260    3.4160    0.2350 O   0  0  0  0  0  0  0  0  0  0  0  0
   -4.4370    5.5370    0.4810 N   0  0  0  0  0  0  0  0  0  0  0  0
   -5.8560    5.1720    0.5020 C   0  0  0  0  0  0  0  0  0  0  0  0
    0.0520    8.0430    0.5520 N   0  0  0  0  0  0  0  0  0  0  0  0
    1.2320    8.3450    0.5280 O   0  0  0  0  0  0  0  0  0  0  0  0
   -0.7960    8.9080    0.6820 O   0  0  0  0  0  0  0  0  0  0  0  0
    1.6130    1.0030    3.6580 H   0  0  0  0  0  0  0  0  0  0  0  0
   -4.1740    6.4670    0.5660 H   0  0  0  0  0  0  0  0  0  0  0  0
  1  2  1  0  0  0  0
  2  3  1  0  0  0  0
  2 25  1  0  0  0  0
  3  4  2  0  0  0  0
  3  5  1  0  0  0  0
  5  6  2  0  0  0  0
  5 10  1  0  0  0  0
  6  7  1  0  0  0  0
  7  8  2  0  0  0  0
  8  9  1  0  0  0  0
  9 10  2  0  0  0  0
 10 11  1  0  0  0  0
 11 12  1  0  0  0  0
 12 13  2  0  0  0  0
 12 17  1  0  0  0  0
 13 14  1  0  0  0  0
 14 15  2  0  0  0  0
 15 16  1  0  0  0  0
 15 22  1  0  0  0  0
 16 17  2  0  0  0  0
 17 18  1  0  0  0  0
 18 19  2  0  0  0  0
 18 20  1  0  0  0  0
 20 21  1  0  0  0  0
 20 26  1  0  0  0  0
 22 23  2  0  0  0  0
 22 24  2  0  0  0  0
M  END
$$$$
