ZINC00068253
 OpenBabel12232117173D

 27 29  0  0  0  0  0  0  0  0999 V2000
    1.7900   -6.3270   -0.7810 C   0  0  0  0  0  0  0  0  0  0  0  0
    1.5780   -4.8370   -1.0580 C   0  0  0  0  0  0  0  0  0  0  0  0
    0.5010   -4.2920   -0.1180 C   0  0  0  0  0  0  0  0  0  0  0  0
    0.2890   -2.8020   -0.3950 C   0  0  1  0  0  0  0  0  0  0  0  0
   -0.8730   -2.2820    0.4560 C   0  0  0  0  0  0  0  0  0  0  0  0
   -1.2520   -0.8690    0.0100 C   0  0  0  0  0  0  0  0  0  0  0  0
    0.0020   -0.0040    0.0020 C   0  0  0  0  0  0  0  0  0  0  0  0
    1.2320   -0.5630   -0.0130 C   0  0  0  0  0  0  0  0  0  0  0  0
    2.3520    0.8080   -0.0160 S   0  0  0  0  0  0  0  0  0  0  0  0
    1.2040    2.1070    0.0020 C   0  0  0  0  0  0  0  0  0  0  0  0
   -0.0180    1.4490    0.0100 C   0  0  0  0  0  0  0  0  0  0  0  0
   -1.2810    2.1920    0.0200 C   0  0  0  0  0  0  0  0  0  0  0  0
   -1.8010    2.4950    1.0780 O   0  0  0  0  0  0  0  0  0  0  0  0
   -1.8680    2.5400   -1.1420 N   0  0  0  0  0  0  0  0  0  0  0  0
    1.4480    3.4710    0.0070 N   0  0  0  0  0  0  0  0  0  0  0  0
    2.7150    3.9290   -0.0020 C   0  0  0  0  0  0  0  0  0  0  0  0
    3.6440    3.1460   -0.0160 O   0  0  0  0  0  0  0  0  0  0  0  0
    2.9750    5.3870    0.0030 C   0  0  0  0  0  0  0  0  0  0  0  0
    1.9200    6.3050    0.0130 C   0  0  0  0  0  0  0  0  0  0  0  0
    2.2090    7.6560    0.0240 C   0  0  0  0  0  0  0  0  0  0  0  0
    3.4560    8.0820    0.0150 N   0  0  0  0  0  0  0  0  0  0  0  0
    4.4790    7.2510    0.0000 C   0  0  0  0  0  0  0  0  0  0  0  0
    4.2820    5.8840   -0.0060 C   0  0  0  0  0  0  0  0  0  0  0  0
    1.5600   -2.0240   -0.0250 C   0  0  0  0  0  0  0  0  0  0  0  0
   -1.4540    2.2980   -1.9860 H   0  0  0  0  0  0  0  0  0  0  0  0
   -2.7040    3.0320   -1.1360 H   0  0  0  0  0  0  0  0  0  0  0  0
    0.7060    4.0960    0.0180 H   0  0  0  0  0  0  0  0  0  0  0  0
  1  2  1  0  0  0  0
  2  3  1  0  0  0  0
  4  3  1  1  0  0  0
  4  5  1  0  0  0  0
  4 24  1  0  0  0  0
  5  6  1  0  0  0  0
  6  7  1  0  0  0  0
  7  8  2  0  0  0  0
  7 11  1  0  0  0  0
  8  9  1  0  0  0  0
  8 24  1  0  0  0  0
  9 10  1  0  0  0  0
 10 11  2  0  0  0  0
 10 15  1  0  0  0  0
 11 12  1  0  0  0  0
 12 13  2  0  0  0  0
 12 14  1  0  0  0  0
 14 25  1  0  0  0  0
 14 26  1  0  0  0  0
 15 16  1  0  0  0  0
 15 27  1  0  0  0  0
 16 17  2  0  0  0  0
 16 18  1  0  0  0  0
 18 19  2  0  0  0  0
 18 23  1  0  0  0  0
 19 20  1  0  0  0  0
 20 21  2  0  0  0  0
 21 22  1  0  0  0  0
 22 23  2  0  0  0  0
M  END
$$$$
