ZINC00038397
 OpenBabel12232117173D

 26 27  0  0  0  0  0  0  0  0999 V2000
   10.8980    0.5680   -0.1020 C   0  0  0  0  0  0  0  0  0  0  0  0
    9.4150    0.2980   -0.0880 C   0  0  0  0  0  0  0  0  0  0  0  0
    8.9310   -0.9570   -0.0900 C   0  0  0  0  0  0  0  0  0  0  0  0
    7.1660   -0.7150   -0.0650 S   0  0  0  0  0  0  0  0  0  0  0  0
    7.1120    1.0160   -0.0620 C   0  0  0  0  0  0  0  0  0  0  0  0
    8.4550    1.3760   -0.0730 C   0  0  0  0  0  0  0  0  0  0  0  0
    8.8750    2.7800   -0.0700 C   0  0  0  0  0  0  0  0  0  0  0  0
    9.0590    3.3580    0.9850 O   0  0  0  0  0  0  0  0  0  0  0  0
    9.0560    3.4320   -1.2360 N   0  0  0  0  0  0  0  0  0  0  0  0
    5.9990    1.8430   -0.0460 N   0  0  0  0  0  0  0  0  0  0  0  0
    4.7620    1.3080   -0.0370 C   0  0  0  0  0  0  0  0  0  0  0  0
    4.6230    0.1030   -0.0430 O   0  0  0  0  0  0  0  0  0  0  0  0
    3.5520    2.2060   -0.0200 C   0  0  0  0  0  0  0  0  0  0  0  0
    2.3670    1.4080   -0.0140 O   0  0  0  0  0  0  0  0  0  0  0  0
    1.1780    2.0690    0.0020 C   0  0  0  0  0  0  0  0  0  0  0  0
    1.1540    3.4550    0.0100 C   0  0  0  0  0  0  0  0  0  0  0  0
   -0.0550    4.1250    0.0250 C   0  0  0  0  0  0  0  0  0  0  0  0
   -1.2420    3.4160    0.0320 C   0  0  0  0  0  0  0  0  0  0  0  0
   -1.2250    2.0340    0.0190 C   0  0  0  0  0  0  0  0  0  0  0  0
   -0.0160    1.3560    0.0100 C   0  0  0  0  0  0  0  0  0  0  0  0
    0.0020   -0.0040    0.0020 O   0  0  0  0  0  0  0  0  0  0  0  0
   -1.2620   -0.6700    0.0100 C   0  0  0  0  0  0  0  0  0  0  0  0
    9.6960   -2.2550   -0.1040 C   0  0  0  0  0  0  0  0  0  0  0  0
    8.9090    2.9720   -2.0770 H   0  0  0  0  0  0  0  0  0  0  0  0
    9.3340    4.3610   -1.2340 H   0  0  0  0  0  0  0  0  0  0  0  0
    6.1110    2.8060   -0.0420 H   0  0  0  0  0  0  0  0  0  0  0  0
  1  2  1  0  0  0  0
  2  3  2  0  0  0  0
  2  6  1  0  0  0  0
  3  4  1  0  0  0  0
  3 23  1  0  0  0  0
  4  5  1  0  0  0  0
  5  6  2  0  0  0  0
  5 10  1  0  0  0  0
  6  7  1  0  0  0  0
  7  8  2  0  0  0  0
  7  9  1  0  0  0  0
  9 24  1  0  0  0  0
  9 25  1  0  0  0  0
 10 11  1  0  0  0  0
 10 26  1  0  0  0  0
 11 12  2  0  0  0  0
 11 13  1  0  0  0  0
 13 14  1  0  0  0  0
 14 15  1  0  0  0  0
 15 16  2  0  0  0  0
 15 20  1  0  0  0  0
 16 17  1  0  0  0  0
 17 18  2  0  0  0  0
 18 19  1  0  0  0  0
 19 20  2  0  0  0  0
 20 21  1  0  0  0  0
 21 22  1  0  0  0  0
M  END
$$$$
