ZINC00068254
 OpenBabel12232117173D

 27 29  0  0  0  0  0  0  0  0999 V2000
   -0.7530    1.5930   -1.2320 C   0  0  0  0  0  0  0  0  0  0  0  0
   -0.0130    1.0860    0.0080 C   0  0  0  0  0  0  0  0  0  0  0  0
   -0.7290    1.5790    1.2670 C   0  0  0  0  0  0  0  0  0  0  0  0
    0.0110    1.0720    2.5060 C   0  0  2  0  0  0  0  0  0  0  0  0
   -0.7710    1.4590    3.7650 C   0  0  0  0  0  0  0  0  0  0  0  0
   -0.1780    0.7510    4.9840 C   0  0  0  0  0  0  0  0  0  0  0  0
    1.3220    1.0200    5.0260 C   0  0  0  0  0  0  0  0  0  0  0  0
    1.9820    1.4490    3.9290 C   0  0  0  0  0  0  0  0  0  0  0  0
    3.6650    1.6200    4.4510 S   0  0  0  0  0  0  0  0  0  0  0  0
    3.4960    1.1290    6.1040 C   0  0  0  0  0  0  0  0  0  0  0  0
    2.1410    0.8440    6.2120 C   0  0  0  0  0  0  0  0  0  0  0  0
    1.5600    0.3830    7.4770 C   0  0  0  0  0  0  0  0  0  0  0  0
    1.5070   -0.8080    7.7240 O   0  0  0  0  0  0  0  0  0  0  0  0
    1.0850    1.2770    8.3660 N   0  0  0  0  0  0  0  0  0  0  0  0
    4.4740    1.0410    7.0810 N   0  0  0  0  0  0  0  0  0  0  0  0
    5.7500    1.3630    6.7870 C   0  0  0  0  0  0  0  0  0  0  0  0
    6.0420    1.7290    5.6660 O   0  0  0  0  0  0  0  0  0  0  0  0
    6.7960    1.2690    7.8310 C   0  0  0  0  0  0  0  0  0  0  0  0
    6.4810    0.8560    9.1300 C   0  0  0  0  0  0  0  0  0  0  0  0
    7.4890    0.7780   10.0710 C   0  0  0  0  0  0  0  0  0  0  0  0
    8.7300    1.0970    9.7620 N   0  0  0  0  0  0  0  0  0  0  0  0
    9.0690    1.4970    8.5520 C   0  0  0  0  0  0  0  0  0  0  0  0
    8.1260    1.5980    7.5480 C   0  0  0  0  0  0  0  0  0  0  0  0
    1.4040    1.7150    2.5730 C   0  0  0  0  0  0  0  0  0  0  0  0
    1.1270    2.2260    8.1700 H   0  0  0  0  0  0  0  0  0  0  0  0
    0.7000    0.9720    9.2030 H   0  0  0  0  0  0  0  0  0  0  0  0
    4.2420    0.7490    7.9760 H   0  0  0  0  0  0  0  0  0  0  0  0
  1  2  1  0  0  0  0
  2  3  1  0  0  0  0
  4  3  1  6  0  0  0
  4  5  1  0  0  0  0
  4 24  1  0  0  0  0
  5  6  1  0  0  0  0
  6  7  1  0  0  0  0
  7  8  2  0  0  0  0
  7 11  1  0  0  0  0
  8  9  1  0  0  0  0
  8 24  1  0  0  0  0
  9 10  1  0  0  0  0
 10 11  2  0  0  0  0
 10 15  1  0  0  0  0
 11 12  1  0  0  0  0
 12 13  2  0  0  0  0
 12 14  1  0  0  0  0
 14 25  1  0  0  0  0
 14 26  1  0  0  0  0
 15 16  1  0  0  0  0
 15 27  1  0  0  0  0
 16 17  2  0  0  0  0
 16 18  1  0  0  0  0
 18 19  2  0  0  0  0
 18 23  1  0  0  0  0
 19 20  1  0  0  0  0
 20 21  2  0  0  0  0
 21 22  1  0  0  0  0
 22 23  2  0  0  0  0
M  END
$$$$
