ZINC03832016
 OpenBabel12222117043D

 42 44  0  0  0  0  0  0  0  0999 V2000
   -0.0400    0.9630    0.0170 C   0  0  0  0  0  0  0  0  0  0  0  0
   -0.7440    1.4560    1.2550 C   0  0  0  0  0  0  0  0  0  0  0  0
   -0.2330    1.2180    2.4380 C   0  0  0  0  0  0  0  0  0  0  0  0
   -0.8750    1.8060    3.6680 C   0  0  0  0  0  0  0  0  0  0  0  0
   -1.1810    0.7350    4.6190 N   0  0  0  0  0  0  0  0  0  0  0  0
   -2.3060   -0.0340    4.6320 C   0  0  0  0  0  0  0  0  0  0  0  0
   -2.2470   -0.8910    5.6110 N   0  0  0  0  0  0  0  0  0  0  0  0
   -1.0880   -0.7190    6.2920 C   0  0  0  0  0  0  0  0  0  0  0  0
   -0.3900    0.3270    5.6630 C   0  0  0  0  0  0  0  0  0  0  0  0
    0.7920    0.6950    6.1460 N   0  0  0  0  0  0  0  0  0  0  0  0
    1.3050    0.0920    7.1970 C   0  0  0  0  0  0  0  0  0  0  0  0
    0.6870   -0.8940    7.8200 N   0  0  0  0  0  0  0  0  0  0  0  0
   -0.4990   -1.3310    7.4100 C   0  0  0  0  0  0  0  0  0  0  0  0
   -1.1390   -2.3660    8.0700 N   0  0  0  0  0  0  0  0  0  0  0  0
   -3.4470    0.0860    3.6560 C   0  0  0  0  0  0  0  0  0  0  0  0
   -4.5250    0.9570    4.2480 C   0  0  0  0  0  0  0  0  0  0  0  0
   -4.5670    2.3060    3.9460 C   0  0  0  0  0  0  0  0  0  0  0  0
   -5.5550    3.1080    4.4870 C   0  0  0  0  0  0  0  0  0  0  0  0
   -6.5030    2.5630    5.3320 C   0  0  0  0  0  0  0  0  0  0  0  0
   -6.4630    1.2100    5.6360 C   0  0  0  0  0  0  0  0  0  0  0  0
   -5.4740    0.4060    5.0880 C   0  0  0  0  0  0  0  0  0  0  0  0
   -7.3950    0.6720    6.4660 O   0  0  0  0  0  0  0  0  0  0  0  0
   -8.3870    1.5570    6.9890 C   0  0  0  0  0  0  0  0  0  0  0  0
    0.0420   -0.1230    0.0540 H   0  0  0  0  0  0  0  0  0  0  0  0
    0.9570    1.4010   -0.0330 H   0  0  0  0  0  0  0  0  0  0  0  0
   -0.6100    1.2540   -0.8650 H   0  0  0  0  0  0  0  0  0  0  0  0
   -1.6690    2.0070    1.1670 H   0  0  0  0  0  0  0  0  0  0  0  0
    0.6470    0.5990    2.5310 H   0  0  0  0  0  0  0  0  0  0  0  0
   -0.1900    2.5180    4.1290 H   0  0  0  0  0  0  0  0  0  0  0  0
   -1.7960    2.3180    3.3880 H   0  0  0  0  0  0  0  0  0  0  0  0
    2.2680    0.4160    7.5630 H   0  0  0  0  0  0  0  0  0  0  0  0
   -0.5650   -3.1850    8.0420 H   0  0  0  0  0  0  0  0  0  0  0  0
   -2.0050   -2.6760    7.7610 H   0  0  0  0  0  0  0  0  0  0  0  0
   -3.0870    0.5320    2.7290 H   0  0  0  0  0  0  0  0  0  0  0  0
   -3.8540   -0.9040    3.4480 H   0  0  0  0  0  0  0  0  0  0  0  0
   -3.8270    2.7330    3.2850 H   0  0  0  0  0  0  0  0  0  0  0  0
   -5.5850    4.1610    4.2490 H   0  0  0  0  0  0  0  0  0  0  0  0
   -7.2740    3.1890    5.7540 H   0  0  0  0  0  0  0  0  0  0  0  0
   -5.4430   -0.6480    5.3210 H   0  0  0  0  0  0  0  0  0  0  0  0
   -7.9020    2.3460    7.5650 H   0  0  0  0  0  0  0  0  0  0  0  0
   -8.9480    2.0000    6.1670 H   0  0  0  0  0  0  0  0  0  0  0  0
   -9.0660    1.0010    7.6350 H   0  0  0  0  0  0  0  0  0  0  0  0
  1  2  1  0  0  0  0
  1 24  1  0  0  0  0
  1 25  1  0  0  0  0
  1 26  1  0  0  0  0
  2  3  2  0  0  0  0
  2 27  1  0  0  0  0
  3  4  1  0  0  0  0
  3 28  1  0  0  0  0
  4  5  1  0  0  0  0
  4 29  1  0  0  0  0
  4 30  1  0  0  0  0
  5  6  1  0  0  0  0
  5  9  1  0  0  0  0
  6  7  2  0  0  0  0
  6 15  1  0  0  0  0
  7  8  1  0  0  0  0
  8  9  2  0  0  0  0
  8 13  1  0  0  0  0
  9 10  1  0  0  0  0
 10 11  2  0  0  0  0
 11 12  1  0  0  0  0
 11 31  1  0  0  0  0
 12 13  2  0  0  0  0
 13 14  1  0  0  0  0
 14 32  1  0  0  0  0
 14 33  1  0  0  0  0
 15 16  1  0  0  0  0
 15 34  1  0  0  0  0
 15 35  1  0  0  0  0
 16 17  2  0  0  0  0
 16 21  1  0  0  0  0
 17 18  1  0  0  0  0
 17 36  1  0  0  0  0
 18 19  2  0  0  0  0
 18 37  1  0  0  0  0
 19 20  1  0  0  0  0
 19 38  1  0  0  0  0
 20 21  2  0  0  0  0
 20 22  1  0  0  0  0
 21 39  1  0  0  0  0
 22 23  1  0  0  0  0
 23 40  1  0  0  0  0
 23 41  1  0  0  0  0
 23 42  1  0  0  0  0
M  END
$$$$
