ZINC03832020
 OpenBabel12222117043D

 52 54  0  0  0  0  0  0  0  0999 V2000
   -3.5930    0.4100    7.5730 C   0  0  0  0  0  0  0  0  0  0  0  0
   -4.0160    0.9650    6.2110 C   0  0  0  0  0  0  0  0  0  0  0  0
   -2.7800    1.1510    5.3290 C   0  0  0  0  0  0  0  0  0  0  0  0
   -3.2040    1.7060    3.9680 C   0  0  0  0  0  0  0  0  0  0  0  0
   -2.0210    1.8840    3.1230 N   0  0  0  0  0  0  0  0  0  0  0  0
   -1.5610    1.0100    2.1830 C   0  0  0  0  0  0  0  0  0  0  0  0
   -0.4880    1.4860    1.6210 N   0  0  0  0  0  0  0  0  0  0  0  0
   -0.1920    2.6920    2.1620 C   0  0  0  0  0  0  0  0  0  0  0  0
   -1.1740    2.9640    3.1290 C   0  0  0  0  0  0  0  0  0  0  0  0
   -1.1060    4.0990    3.8170 N   0  0  0  0  0  0  0  0  0  0  0  0
   -0.1380    4.9630    3.5920 C   0  0  0  0  0  0  0  0  0  0  0  0
    0.8040    4.7530    2.6910 N   0  0  0  0  0  0  0  0  0  0  0  0
    0.8210    3.6440    1.9580 C   0  0  0  0  0  0  0  0  0  0  0  0
    1.8120    3.4330    1.0160 N   0  0  0  0  0  0  0  0  0  0  0  0
   -2.2020   -0.3110    1.8460 C   0  0  0  0  0  0  0  0  0  0  0  0
   -1.5180   -1.4120    2.6150 C   0  0  0  0  0  0  0  0  0  0  0  0
   -2.1260   -1.9530    3.7320 C   0  0  0  0  0  0  0  0  0  0  0  0
   -1.5000   -2.9660    4.4430 C   0  0  0  0  0  0  0  0  0  0  0  0
   -0.2590   -3.4380    4.0300 C   0  0  0  0  0  0  0  0  0  0  0  0
    0.3490   -2.8920    2.9070 C   0  0  0  0  0  0  0  0  0  0  0  0
   -0.2860   -1.8820    2.1980 C   0  0  0  0  0  0  0  0  0  0  0  0
    0.4700   -1.2040    0.7900 Cl  0  0  0  0  0  0  0  0  0  0  0  0
    1.5630   -3.3510    2.4990 O   0  0  0  0  0  0  0  0  0  0  0  0
    1.5680   -4.4390    1.5720 C   0  0  0  0  0  0  0  0  0  0  0  0
    0.3580   -4.4320    4.7250 O   0  0  0  0  0  0  0  0  0  0  0  0
    1.1910   -4.0400    5.8170 C   0  0  0  0  0  0  0  0  0  0  0  0
   -2.1000   -3.4970    5.5420 O   0  0  0  0  0  0  0  0  0  0  0  0
   -3.3740   -2.9640    5.9070 C   0  0  0  0  0  0  0  0  0  0  0  0
   -3.0960   -0.5510    7.4350 H   0  0  0  0  0  0  0  0  0  0  0  0
   -2.9060    1.1080    8.0520 H   0  0  0  0  0  0  0  0  0  0  0  0
   -4.4730    0.2770    8.2010 H   0  0  0  0  0  0  0  0  0  0  0  0
   -4.5130    1.9260    6.3490 H   0  0  0  0  0  0  0  0  0  0  0  0
   -4.7030    0.2670    5.7320 H   0  0  0  0  0  0  0  0  0  0  0  0
   -2.2840    0.1900    5.1920 H   0  0  0  0  0  0  0  0  0  0  0  0
   -2.0940    1.8490    5.8080 H   0  0  0  0  0  0  0  0  0  0  0  0
   -3.8910    1.0080    3.4890 H   0  0  0  0  0  0  0  0  0  0  0  0
   -3.7000    2.6670    4.1060 H   0  0  0  0  0  0  0  0  0  0  0  0
   -0.1140    5.8780    4.1660 H   0  0  0  0  0  0  0  0  0  0  0  0
    2.3170    2.6000    1.2440 H   0  0  0  0  0  0  0  0  0  0  0  0
    2.5060    4.0980    0.8840 H   0  0  0  0  0  0  0  0  0  0  0  0
   -3.2580   -0.2830    2.1140 H   0  0  0  0  0  0  0  0  0  0  0  0
   -2.1030   -0.5000    0.7760 H   0  0  0  0  0  0  0  0  0  0  0  0
   -3.0900   -1.5860    4.0520 H   0  0  0  0  0  0  0  0  0  0  0  0
    1.1110   -4.1190    0.6350 H   0  0  0  0  0  0  0  0  0  0  0  0
    2.5940   -4.7540    1.3870 H   0  0  0  0  0  0  0  0  0  0  0  0
    1.0000   -5.2720    1.9870 H   0  0  0  0  0  0  0  0  0  0  0  0
    1.9500   -3.3420    5.4630 H   0  0  0  0  0  0  0  0  0  0  0  0
    0.5840   -3.5570    6.5830 H   0  0  0  0  0  0  0  0  0  0  0  0
    1.6760   -4.9200    6.2390 H   0  0  0  0  0  0  0  0  0  0  0  0
   -4.0780   -3.1130    5.0890 H   0  0  0  0  0  0  0  0  0  0  0  0
   -3.7400   -3.4740    6.7980 H   0  0  0  0  0  0  0  0  0  0  0  0
   -3.2760   -1.8980    6.1140 H   0  0  0  0  0  0  0  0  0  0  0  0
  1  2  1  0  0  0  0
  1 29  1  0  0  0  0
  1 30  1  0  0  0  0
  1 31  1  0  0  0  0
  2  3  1  0  0  0  0
  2 32  1  0  0  0  0
  2 33  1  0  0  0  0
  3  4  1  0  0  0  0
  3 34  1  0  0  0  0
  3 35  1  0  0  0  0
  4  5  1  0  0  0  0
  4 36  1  0  0  0  0
  4 37  1  0  0  0  0
  5  6  1  0  0  0  0
  5  9  1  0  0  0  0
  6  7  2  0  0  0  0
  6 15  1  0  0  0  0
  7  8  1  0  0  0  0
  8  9  2  0  0  0  0
  8 13  1  0  0  0  0
  9 10  1  0  0  0  0
 10 11  2  0  0  0  0
 11 12  1  0  0  0  0
 11 38  1  0  0  0  0
 12 13  2  0  0  0  0
 13 14  1  0  0  0  0
 14 39  1  0  0  0  0
 14 40  1  0  0  0  0
 15 16  1  0  0  0  0
 15 41  1  0  0  0  0
 15 42  1  0  0  0  0
 16 17  2  0  0  0  0
 16 21  1  0  0  0  0
 17 18  1  0  0  0  0
 17 43  1  0  0  0  0
 18 19  2  0  0  0  0
 18 27  1  0  0  0  0
 19 20  1  0  0  0  0
 19 25  1  0  0  0  0
 20 21  2  0  0  0  0
 20 23  1  0  0  0  0
 21 22  1  0  0  0  0
 23 24  1  0  0  0  0
 24 44  1  0  0  0  0
 24 45  1  0  0  0  0
 24 46  1  0  0  0  0
 25 26  1  0  0  0  0
 26 47  1  0  0  0  0
 26 48  1  0  0  0  0
 26 49  1  0  0  0  0
 27 28  1  0  0  0  0
 28 50  1  0  0  0  0
 28 51  1  0  0  0  0
 28 52  1  0  0  0  0
M  END
$$$$
