data/CDK2/cocry_dataset/1aq1_STU_LIG.pdb
 OpenBabel03092321123D

 36 43  0  0  0  0  0  0  0  0999 V2000
  -10.2687  208.7205  115.8990 O   0  0  0  0  0  0  0  0  0  0  0  0
  -10.8389  208.3389  117.1522 C   0  0  2  0  0  0  0  0  0  0  0  0
   -9.6864  207.6889  117.9905 C   0  0  0  0  0  0  0  0  0  0  0  0
   -8.7328  206.7745  117.1749 C   0  0  2  0  0  0  0  0  0  0  0  0
   -9.4827  206.2629  115.9241 C   0  0  2  0  0  0  0  0  0  0  0  0
   -9.8629  207.5953  115.0799 C   0  0  2  0  0  0  0  0  0  0  0  0
   -8.5912  208.1302  114.3963 C   0  0  0  0  0  0  0  0  0  0  0  0
  -10.9693  207.4129  114.1571 N   0  0  0  0  0  0  0  0  0  0  0  0
  -12.2527  207.1568  114.5230 C   0  0  0  0  0  0  0  0  0  0  0  0
  -12.7104  207.1378  115.8298 C   0  0  0  0  0  0  0  0  0  0  0  0
  -13.8187  206.2853  115.9859 C   0  0  0  0  0  0  0  0  0  0  0  0
  -14.6680  205.6699  115.0696 C   0  0  0  0  0  0  0  0  0  0  0  0
  -14.3469  205.9260  113.7373 C   0  0  0  0  0  0  0  0  0  0  0  0
  -13.1375  206.6329  113.5750 C   0  0  0  0  0  0  0  0  0  0  0  0
  -12.3655  206.6781  112.3985 C   0  0  0  0  0  0  0  0  0  0  0  0
  -11.0426  207.1589  112.7647 C   0  0  0  0  0  0  0  0  0  0  0  0
  -10.0627  207.2759  111.7563 C   0  0  0  0  0  0  0  0  0  0  0  0
  -10.3519  206.9232  110.4358 C   0  0  0  0  0  0  0  0  0  0  0  0
  -11.6044  206.4537  110.0860 C   0  0  0  0  0  0  0  0  0  0  0  0
  -12.6054  206.3261  111.0500 C   0  0  0  0  0  0  0  0  0  0  0  0
  -15.3222  205.2522  112.9962 C   0  0  0  0  0  0  0  0  0  0  0  0
  -16.1715  204.6297  113.7511 N   0  0  0  0  0  0  0  0  0  0  0  0
  -15.8297  204.8317  115.1022 C   0  0  0  0  0  0  0  0  0  0  0  0
  -16.4505  204.3503  116.0407 O   0  0  0  0  0  0  0  0  0  0  0  0
  -13.8004  206.0896  117.3641 C   0  0  0  0  0  0  0  0  0  0  0  0
  -13.0332  207.1782  117.9265 C   0  0  0  0  0  0  0  0  0  0  0  0
  -13.3436  207.5884  119.2308 C   0  0  0  0  0  0  0  0  0  0  0  0
  -14.1154  206.7203  120.0237 C   0  0  0  0  0  0  0  0  0  0  0  0
  -14.4695  205.4496  119.5778 C   0  0  0  0  0  0  0  0  0  0  0  0
  -14.3352  205.1298  118.2355 C   0  0  0  0  0  0  0  0  0  0  0  0
  -12.1053  207.6379  116.9592 N   0  0  0  0  0  0  0  0  0  0  0  0
   -8.0681  205.6826  117.9127 N   0  0  0  0  0  0  0  0  0  0  0  0
   -8.7061  205.2596  119.1459 C   0  0  0  0  0  0  0  0  0  0  0  0
   -7.9439  204.8658  117.3200 H   0  0  0  0  0  0  0  0  0  0  0  0
  -10.6478  205.4809  116.2385 O   0  0  0  0  0  0  0  0  0  0  0  0
  -10.7624  204.1275  115.8498 C   0  0  0  0  0  0  0  0  0  0  0  0
  1  2  1  0  0  0  0
  1  6  1  0  0  0  0
  2  3  1  6  0  0  0
  2 31  1  0  0  0  0
  3  4  1  0  0  0  0
  4  5  1  0  0  0  0
  4 32  1  1  0  0  0
  5  6  1  0  0  0  0
  5 35  1  1  0  0  0
  6  8  1  0  0  0  0
  6  7  1  6  0  0  0
  8  9  1  0  0  0  0
  8 16  1  0  0  0  0
  9 10  1  0  0  0  0
  9 14  2  0  0  0  0
 10 11  2  0  0  0  0
 10 31  1  0  0  0  0
 11 12  1  0  0  0  0
 11 25  1  0  0  0  0
 12 13  2  0  0  0  0
 12 23  1  0  0  0  0
 13 14  1  0  0  0  0
 13 21  1  0  0  0  0
 14 15  1  0  0  0  0
 15 16  1  0  0  0  0
 15 20  2  0  0  0  0
 16 17  2  0  0  0  0
 17 18  1  0  0  0  0
 18 19  2  0  0  0  0
 19 20  1  0  0  0  0
 21 22  2  0  0  0  0
 22 23  1  0  0  0  0
 23 24  2  0  0  0  0
 25 26  1  0  0  0  0
 25 30  2  0  0  0  0
 26 27  2  0  0  0  0
 26 31  1  0  0  0  0
 27 28  1  0  0  0  0
 28 29  2  0  0  0  0
 29 30  1  0  0  0  0
 32 33  1  0  0  0  0
 32 34  1  0  0  0  0
 35 36  1  0  0  0  0
M  END
>  <minimizedAffinity>
-7.40687

$$$$
