data/CDK2/cocry_dataset/1aq1_STU_LIG.pdb
 OpenBabel03092321123D

 36 43  0  0  0  0  0  0  0  0999 V2000
   -9.8543  208.3871  116.8546 O   0  0  0  0  0  0  0  0  0  0  0  0
  -11.2431  208.0779  116.9846 C   0  0  2  0  0  0  0  0  0  0  0  0
  -11.3684  207.0659  118.1735 C   0  0  0  0  0  0  0  0  0  0  0  0
  -10.2482  205.9922  118.2269 C   0  0  2  0  0  0  0  0  0  0  0  0
   -9.6611  205.8144  116.8083 C   0  0  2  0  0  0  0  0  0  0  0  0
   -9.0491  207.2645  116.4150 C   0  0  2  0  0  0  0  0  0  0  0  0
   -7.7377  207.4781  117.1932 C   0  0  0  0  0  0  0  0  0  0  0  0
   -8.9011  207.4741  114.9856 N   0  0  0  0  0  0  0  0  0  0  0  0
   -9.9298  207.5567  114.1014 C   0  0  0  0  0  0  0  0  0  0  0  0
  -11.2699  207.5587  114.4501 C   0  0  0  0  0  0  0  0  0  0  0  0
  -12.0804  207.0391  113.4241 C   0  0  0  0  0  0  0  0  0  0  0  0
  -11.8354  206.7622  112.0814 C   0  0  0  0  0  0  0  0  0  0  0  0
  -10.5278  207.0271  111.6767 C   0  0  0  0  0  0  0  0  0  0  0  0
   -9.6697  207.3798  112.7387 C   0  0  0  0  0  0  0  0  0  0  0  0
   -8.2641  207.3046  112.7168 C   0  0  0  0  0  0  0  0  0  0  0  0
   -7.8038  207.3658  114.0952 C   0  0  0  0  0  0  0  0  0  0  0  0
   -6.4182  207.2875  114.3494 C   0  0  0  0  0  0  0  0  0  0  0  0
   -5.5075  207.1390  113.3005 C   0  0  0  0  0  0  0  0  0  0  0  0
   -5.9418  207.0676  111.9898 C   0  0  0  0  0  0  0  0  0  0  0  0
   -7.3030  207.1453  111.6917 C   0  0  0  0  0  0  0  0  0  0  0  0
  -10.5028  206.7150  110.3141 C   0  0  0  0  0  0  0  0  0  0  0  0
  -11.6503  206.2940  109.8842 N   0  0  0  0  0  0  0  0  0  0  0  0
  -12.5709  206.2812  110.9497 C   0  0  0  0  0  0  0  0  0  0  0  0
  -13.7341  205.9165  110.8398 O   0  0  0  0  0  0  0  0  0  0  0  0
  -13.2354  206.7336  114.1388 C   0  0  0  0  0  0  0  0  0  0  0  0
  -13.1890  207.5152  115.3540 C   0  0  0  0  0  0  0  0  0  0  0  0
  -14.4089  207.8871  115.9365 C   0  0  0  0  0  0  0  0  0  0  0  0
  -15.5672  207.2065  115.5206 C   0  0  0  0  0  0  0  0  0  0  0  0
  -15.5008  206.1258  114.6450 C   0  0  0  0  0  0  0  0  0  0  0  0
  -14.3375  205.8926  113.9276 C   0  0  0  0  0  0  0  0  0  0  0  0
  -11.8359  207.7759  115.6847 N   0  0  0  0  0  0  0  0  0  0  0  0
  -10.5951  204.7016  118.8533 N   0  0  0  0  0  0  0  0  0  0  0  0
   -9.7861  204.3016  119.9900 C   0  0  0  0  0  0  0  0  0  0  0  0
  -11.5722  204.6841  119.1338 H   0  0  0  0  0  0  0  0  0  0  0  0
  -10.6283  205.3650  115.8437 O   0  0  0  0  0  0  0  0  0  0  0  0
  -11.1045  204.0349  115.8319 C   0  0  0  0  0  0  0  0  0  0  0  0
  1  2  1  0  0  0  0
  1  6  1  0  0  0  0
  2  3  1  1  0  0  0
  2 31  1  0  0  0  0
  3  4  1  0  0  0  0
  4  5  1  0  0  0  0
  4 32  1  6  0  0  0
  5  6  1  0  0  0  0
  5 35  1  6  0  0  0
  6  8  1  0  0  0  0
  6  7  1  1  0  0  0
  8  9  1  0  0  0  0
  8 16  1  0  0  0  0
  9 10  1  0  0  0  0
  9 14  2  0  0  0  0
 10 11  2  0  0  0  0
 10 31  1  0  0  0  0
 11 12  1  0  0  0  0
 11 25  1  0  0  0  0
 12 13  2  0  0  0  0
 12 23  1  0  0  0  0
 13 14  1  0  0  0  0
 13 21  1  0  0  0  0
 14 15  1  0  0  0  0
 15 16  1  0  0  0  0
 15 20  2  0  0  0  0
 16 17  2  0  0  0  0
 17 18  1  0  0  0  0
 18 19  2  0  0  0  0
 19 20  1  0  0  0  0
 21 22  2  0  0  0  0
 22 23  1  0  0  0  0
 23 24  2  0  0  0  0
 25 26  1  0  0  0  0
 25 30  2  0  0  0  0
 26 27  2  0  0  0  0
 26 31  1  0  0  0  0
 27 28  1  0  0  0  0
 28 29  2  0  0  0  0
 29 30  1  0  0  0  0
 32 33  1  0  0  0  0
 32 34  1  0  0  0  0
 35 36  1  0  0  0  0
M  END
>  <minimizedAffinity>
-6.87609

$$$$
