# created with PyMOL 2.5.0
@<TRIPOS>MOLECULE
data/CDK2/cocry_dataset/1aq1_STU_LIG.pdb
59 66 1                 
SMALL
USER_CHARGES
@<TRIPOS>ATOM
1	   O	-13.288	203.691	116.897	O.3	1	UNK0	0.000	
2	   C	-12.259	204.206	117.744	C.3	1	UNK0	0.000	
3	   C	-12.976	204.893	118.955	C.3	1	UNK0	0.000	
4	   C	-14.250	205.696	118.579	C.3	1	UNK0	0.000	
5	   C	-14.154	206.114	117.093	C.3	1	UNK0	0.000	
6	   C	-14.086	204.722	116.263	C.3	1	UNK0	0.000	
7	   C	-15.488	204.085	116.244	C.3	1	UNK0	0.000	
8	   N	-13.505	204.853	114.938	N.pl3	1	UNK0	0.000	
9	   C	-12.211	205.184	114.686	C.2	1	UNK0	0.000	
10	   C	-11.234	205.339	115.656	C.2	1	UNK0	0.000	
11	   C	-10.231	206.238	115.251	C.2	1	UNK0	0.000	
12	   C	-9.908	206.792	114.015	C.2	1	UNK0	0.000	
13	   C	-10.756	206.403	112.979	C.2	1	UNK0	0.000	
14	   C	-11.864	205.646	113.413	C.2	1	UNK0	0.000	
15	   C	-13.064	205.466	112.700	C.2	1	UNK0	0.000	
16	   C	-14.061	204.979	113.641	C.2	1	UNK0	0.000	
17	   C	-15.370	204.737	113.174	C.2	1	UNK0	0.000	
18	   C	-15.707	204.975	111.840	C.2	1	UNK0	0.000	
19	   C	-14.767	205.450	110.945	C.2	1	UNK0	0.000	
20	   C	-13.458	205.699	111.362	C.2	1	UNK0	0.000	
21	   C	-10.248	207.036	111.841	C.2	1	UNK0	0.000	
22	   N	-9.201	207.754	112.103	N.2	1	UNK0	0.000	
23	   C	-8.909	207.667	113.477	C.2	1	UNK0	0.000	
24	   O	-7.977	208.254	114.013	O.2	1	UNK0	0.000	
25	   C	-9.663	206.560	116.481	C.2	1	UNK0	0.000	
26	   C	-10.032	205.504	117.396	C.2	1	UNK0	0.000	
27	   C	-9.159	205.227	118.458	C.2	1	UNK0	0.000	
28	   C	-8.183	206.190	118.770	C.2	1	UNK0	0.000	
29	   C	-8.147	207.424	118.127	C.2	1	UNK0	0.000	
30	   C	-8.872	207.613	116.961	C.2	1	UNK0	0.000	
31	   N	-11.253	204.927	116.968	N.pl3	1	UNK0	0.000	
32	   N	-14.603	206.830	119.455	N.3	1	UNK0	0.000	
33	   C	-14.481	206.600	120.883	C.3	1	UNK0	0.000	
34	   O	-13.026	206.959	116.811	O.3	1	UNK0	0.000	
35	   C	-13.183	208.247	116.251	C.3	1	UNK0	0.000	
36	 H01	-11.616	203.455	118.205	 H	1	UNK0	0.000	
37	 H02	-12.267	205.612	119.367	 H	1	UNK0	0.000	
38	 H03	-13.259	204.119	119.668	 H	1	UNK0	0.000	
39	 H04	-15.088	205.018	118.741	 H	1	UNK0	0.000	
40	 H05	-15.014	206.721	116.810	 H	1	UNK0	0.000	
41	 H06	-16.186	204.758	115.747	 H	1	UNK0	0.000	
42	 H07	-15.450	203.138	115.705	 H	1	UNK0	0.000	
43	 H08	-15.820	203.907	117.267	 H	1	UNK0	0.000	
44	 H09	-16.126	204.360	113.863	 H	1	UNK0	0.000	
45	 H10	-16.725	204.783	111.499	 H	1	UNK0	0.000	
46	 H11	-15.049	205.631	109.908	 H	1	UNK0	0.000	
47	 H12	-12.729	206.078	110.645	 H	1	UNK0	0.000	
48	 H13	-10.684	206.938	110.847	 H	1	UNK0	0.000	
49	 H14	-9.235	204.298	119.022	 H	1	UNK0	0.000	
50	 H15	-7.437	205.964	119.533	 H	1	UNK0	0.000	
51	 H16	-7.551	208.239	118.540	 H	1	UNK0	0.000	
52	 H17	-8.827	208.563	116.427	 H	1	UNK0	0.000	
53	 H18	-14.002	207.605	119.215	 H	1	UNK0	0.000	
54	 H19	-13.940	207.430	121.339	 H	1	UNK0	0.000	
55	 H20	-15.474	206.527	121.326	 H	1	UNK0	0.000	
56	 H21	-13.935	205.673	121.057	 H	1	UNK0	0.000	
57	 H22	-13.998	208.765	116.757	 H	1	UNK0	0.000	
58	 H23	-12.260	208.813	116.377	 H	1	UNK0	0.000	
59	 H24	-13.413	208.157	115.190	 H	1	UNK0	0.000	
@<TRIPOS>BOND
1 1 2 1
2 1 6 1
3 2 3 1
4 2 31 1
5 3 4 1
6 4 5 1
7 4 32 1
8 5 6 1
9 5 34 1
10 6 8 1
11 6 7 1
12 8 9 1
13 8 16 1
14 9 10 1
15 9 14 2
16 10 11 2
17 10 31 1
18 11 12 1
19 11 25 1
20 12 13 2
21 12 23 1
22 13 14 1
23 13 21 1
24 14 15 1
25 15 16 1
26 15 20 2
27 16 17 2
28 17 18 1
29 18 19 2
30 19 20 1
31 21 22 2
32 22 23 1
33 23 24 2
34 25 26 1
35 25 30 2
36 26 27 2
37 26 31 1
38 27 28 1
39 28 29 2
40 29 30 1
41 34 35 1
42 32 33 1
43 2 36 1
44 3 37 1
45 3 38 1
46 4 39 1
47 5 40 1
48 7 41 1
49 7 42 1
50 7 43 1
51 17 44 1
52 18 45 1
53 19 46 1
54 20 47 1
55 21 48 1
56 27 49 1
57 28 50 1
58 29 51 1
59 30 52 1
60 32 53 1
61 33 54 1
62 33 55 1
63 33 56 1
64 35 57 1
65 35 58 1
66 35 59 1
@<TRIPOS>SUBSTRUCTURE
1	UNK0	1	GROUP	1 ****	UNK
