# created with PyMOL 2.5.0
@<TRIPOS>MOLECULE
data/CDK2/cocry_dataset/1aq1_STU_LIG.pdb
59 66 1                 
SMALL
USER_CHARGES
@<TRIPOS>ATOM
1	 H15	-14.444	207.050	121.009	 H	1	UNK0	0.000	
2	 H21	-8.758	206.102	119.836	 H	1	UNK0	0.000	
3	 H18	-8.019	204.881	117.300	 H	1	UNK0	0.000	
4	 H24	-10.957	203.512	116.728	 H	1	UNK0	0.000	
5	 H09	-9.069	207.645	112.010	 H	1	UNK0	0.000	
6	 H05	-8.854	205.579	115.354	 H	1	UNK0	0.000	
7	 H20	-8.127	204.454	119.598	 H	1	UNK0	0.000	
8	 H07	-8.764	208.218	113.324	 H	1	UNK0	0.000	
9	 H06	-7.766	207.441	114.576	 H	1	UNK0	0.000	
10	 H01	-11.190	209.162	117.774	 H	1	UNK0	0.000	
11	 H04	-7.887	207.402	116.894	 H	1	UNK0	0.000	
12	 H03	-9.094	208.489	118.434	 H	1	UNK0	0.000	
13	 H14	-12.998	208.547	119.617	 H	1	UNK0	0.000	
14	 H02	-10.166	207.052	118.734	 H	1	UNK0	0.000	
15	 H19	-9.714	204.905	118.930	 H	1	UNK0	0.000	
16	 H08	-8.342	209.109	114.806	 H	1	UNK0	0.000	
17	 H23	-9.835	203.805	115.377	 H	1	UNK0	0.000	
18	 H10	-9.580	207.019	109.672	 H	1	UNK0	0.000	
19	 H13	-15.363	205.251	111.907	 H	1	UNK0	0.000	
20	 H12	-13.586	205.950	110.759	 H	1	UNK0	0.000	
21	 H11	-11.811	206.182	109.051	 H	1	UNK0	0.000	
22	 H22	-11.586	204.021	115.143	 H	1	UNK0	0.000	
23	 H17	-14.639	204.151	117.865	 H	1	UNK0	0.000	
24	 H16	-14.851	204.709	120.281	 H	1	UNK0	0.000	
25	   O	-10.269	208.721	115.899	O.3	1	UNK0	0.000	
26	   C	-10.839	208.339	117.152	C.3	1	UNK0	0.000	
27	   C	-9.686	207.689	117.991	C.3	1	UNK0	0.000	
28	   C	-8.733	206.775	117.175	C.3	1	UNK0	0.000	
29	   C	-9.483	206.263	115.924	C.3	1	UNK0	0.000	
30	   C	-9.863	207.595	115.080	C.3	1	UNK0	0.000	
31	   C	-8.591	208.130	114.396	C.3	1	UNK0	0.000	
32	   N	-10.969	207.413	114.157	N.pl3	1	UNK0	0.000	
33	   C	-12.253	207.157	114.523	C.2	1	UNK0	0.000	
34	   C	-12.710	207.138	115.830	C.2	1	UNK0	0.000	
35	   C	-13.819	206.285	115.986	C.2	1	UNK0	0.000	
36	   C	-14.668	205.670	115.070	C.2	1	UNK0	0.000	
37	   C	-14.347	205.926	113.737	C.2	1	UNK0	0.000	
38	   C	-13.137	206.633	113.575	C.2	1	UNK0	0.000	
39	   C	-12.366	206.678	112.398	C.2	1	UNK0	0.000	
40	   C	-11.043	207.159	112.765	C.2	1	UNK0	0.000	
41	   C	-10.063	207.276	111.756	C.2	1	UNK0	0.000	
42	   C	-10.352	206.923	110.436	C.2	1	UNK0	0.000	
43	   C	-11.604	206.454	110.086	C.2	1	UNK0	0.000	
44	   C	-12.605	206.326	111.050	C.2	1	UNK0	0.000	
45	   C	-15.322	205.252	112.996	C.2	1	UNK0	0.000	
46	   N	-16.171	204.630	113.751	N.2	1	UNK0	0.000	
47	   C	-15.830	204.832	115.102	C.2	1	UNK0	0.000	
48	   O	-16.451	204.350	116.041	O.2	1	UNK0	0.000	
49	   C	-13.800	206.090	117.364	C.2	1	UNK0	0.000	
50	   C	-13.033	207.178	117.926	C.2	1	UNK0	0.000	
51	   C	-13.344	207.588	119.231	C.2	1	UNK0	0.000	
52	   C	-14.115	206.720	120.024	C.2	1	UNK0	0.000	
53	   C	-14.469	205.450	119.578	C.2	1	UNK0	0.000	
54	   C	-14.335	205.130	118.235	C.2	1	UNK0	0.000	
55	   N	-12.105	207.638	116.959	N.pl3	1	UNK0	0.000	
56	   N	-8.068	205.683	117.913	N.3	1	UNK0	0.000	
57	   C	-8.706	205.260	119.146	C.3	1	UNK0	0.000	
58	   O	-10.648	205.481	116.239	O.3	1	UNK0	0.000	
59	   C	-10.762	204.128	115.850	C.3	1	UNK0	0.000	
@<TRIPOS>BOND
1 25 26 1
2 25 30 1
3 10 26 1
4 26 27 1
5 26 55 1
6 12 27 1
7 14 27 1
8 27 28 1
9 11 28 1
10 28 29 1
11 28 56 1
12 6 29 1
13 29 30 1
14 29 58 1
15 30 31 1
16 30 32 1
17 8 31 1
18 9 31 1
19 16 31 1
20 32 33 1
21 32 40 1
22 33 34 1
23 33 38 2
24 34 35 2
25 34 55 1
26 35 36 1
27 35 49 1
28 36 37 2
29 36 47 1
30 37 38 1
31 37 45 1
32 38 39 1
33 39 40 1
34 39 44 2
35 40 41 2
36 5 41 1
37 41 42 1
38 18 42 1
39 42 43 2
40 21 43 1
41 43 44 1
42 20 44 1
43 19 45 1
44 45 46 2
45 46 47 1
46 47 48 2
47 49 50 1
48 49 54 2
49 50 51 2
50 50 55 1
51 13 51 1
52 51 52 1
53 1 52 1
54 52 53 2
55 24 53 1
56 53 54 1
57 23 54 1
58 3 56 1
59 56 57 1
60 2 57 1
61 7 57 1
62 15 57 1
63 58 59 1
64 4 59 1
65 17 59 1
66 22 59 1
@<TRIPOS>SUBSTRUCTURE
1	UNK0	1	GROUP	1 ****	UNK
