data/CDK2/cocry_dataset/1b38_ATP_LIG.pdb


 39 41  0  0  0  0  0  0  0  0999 V2000
   -8.0262  207.5278  115.1510 C   0  0  0  0  0  0  0  0  0  0  0  0
   -8.6683  206.4497  114.4200 O   0  0  0  0  0  0  0  0  0  0  0  0
   -9.2188  206.9806  113.1907 C   0  0  0  0  0  0  0  0  0  0  0  0
   -9.2299  208.5025  113.3160 C   0  0  0  0  0  0  0  0  0  0  0  0
   -8.0203  208.7346  114.2084 C   0  0  0  0  0  0  0  0  0  0  0  0
   -6.8501  208.7545  113.3655 O   0  0  0  0  0  0  0  0  0  0  0  0
   -9.0881  209.1576  112.0547 O   0  0  0  0  0  0  0  0  0  0  0  0
   -6.5115  207.8458  113.2619 H   0  0  0  0  0  0  0  0  0  0  0  0
   -8.1474  209.4261  111.9863 H   0  0  0  0  0  0  0  0  0  0  0  0
  -10.5104  206.3811  112.9305 N   0  0  0  0  0  0  0  0  0  0  0  0
  -11.1654  205.5051  113.7583 C   0  0  0  0  0  0  0  0  0  0  0  0
  -12.3138  205.1074  113.2487 N   0  0  0  0  0  0  0  0  0  0  0  0
  -12.4019  205.7568  112.0322 C   0  0  0  0  0  0  0  0  0  0  0  0
  -13.3705  205.7454  111.0152 C   0  0  0  0  0  0  0  0  0  0  0  0
  -14.5428  205.0010  111.0851 N   0  0  0  0  0  0  0  0  0  0  0  0
  -13.1456  206.4766  109.8991 N   0  0  0  0  0  0  0  0  0  0  0  0
  -12.0082  207.2020  109.8269 C   0  0  0  0  0  0  0  0  0  0  0  0
  -11.0130  207.2853  110.7307 N   0  0  0  0  0  0  0  0  0  0  0  0
  -11.2813  206.5408  111.8141 C   0  0  0  0  0  0  0  0  0  0  0  0
  -14.4876  204.2325  111.7436 H   0  0  0  0  0  0  0  0  0  0  0  0
  -14.9157  204.8067  110.1657 H   0  0  0  0  0  0  0  0  0  0  0  0
   -8.7623  207.8107  116.4755 C   0  0  0  0  0  0  0  0  0  0  0  0
   -9.9433  207.0223  116.5565 O   0  0  0  0  0  0  0  0  0  0  0  0
  -11.3306  207.7114  116.9886 P   0  0  0  0  0  0  0  0  0  0  0  0
  -11.7490  207.5627  118.4112 O   0  0  0  0  0  0  0  0  0  0  0  0
  -11.0448  209.2406  116.6047 O   0  0  0  0  0  0  0  0  0  0  0  0
  -10.7240  209.7440  117.3751 H   0  0  0  0  0  0  0  0  0  0  0  0
  -12.4209  207.3334  115.9050 O   0  0  0  0  0  0  0  0  0  0  0  0
  -13.9805  207.5531  115.9641 P   0  0  0  0  0  0  0  0  0  0  0  0
  -14.4979  208.6101  115.0393 O   0  0  0  0  0  0  0  0  0  0  0  0
  -14.1773  208.0179  117.4859 O   0  0  0  0  0  0  0  0  0  0  0  0
  -14.4612  208.9457  117.5299 H   0  0  0  0  0  0  0  0  0  0  0  0
  -14.7335  206.1632  115.8979 O   0  0  0  0  0  0  0  0  0  0  0  0
  -15.5855  205.6022  114.6924 P   0  0  0  0  0  0  0  0  0  0  0  0
  -16.9922  205.2218  115.0025 O   0  0  0  0  0  0  0  0  0  0  0  0
  -15.4934  206.6476  113.4928 O   0  0  0  0  0  0  0  0  0  0  0  0
  -14.7651  204.3663  114.0992 O   0  0  0  0  0  0  0  0  0  0  0  0
  -16.3782  206.9734  113.2443 H   0  0  0  0  0  0  0  0  0  0  0  0
  -15.2025  203.5168  114.2868 H   0  0  0  0  0  0  0  0  0  0  0  0
 34 35  2  0  0  0
 34 36  1  0  0  0
 34 37  1  0  0  0
 34 33  1  0  0  0
 36 38  1  0  0  0
 37 39  1  0  0  0
 33 29  1  0  0  0
 29 30  2  0  0  0
 29 31  1  0  0  0
 29 28  1  0  0  0
 31 32  1  0  0  0
 24 26  1  0  0  0
 24 23  1  0  0  0
 24 25  2  0  0  0
 24 28  1  0  0  0
 26 27  1  0  0  0
 23 22  1  0  0  0
 22  1  1  0  0  0
  1  2  1  0  0  0
  1  5  1  0  0  0
  2  3  1  0  0  0
  3  4  1  0  0  0
  3 10  1  0  0  0
  4  5  1  0  0  0
  4  7  1  0  0  0
  5  6  1  0  0  0
  6  8  1  0  0  0
  7  9  1  0  0  0
 10 11  1  0  0  0
 10 19  1  0  0  0
 11 12  2  0  0  0
 12 13  1  0  0  0
 13 14  1  0  0  0
 13 19  2  0  0  0
 14 15  1  0  0  0
 14 16  2  0  0  0
 15 20  1  0  0  0
 15 21  1  0  0  0
 16 17  1  0  0  0
 17 18  2  0  0  0
 18 19  1  0  0  0
M  END
> <minimizedAffinity>
-7.58627

$$$$
data/CDK2/cocry_dataset/1b38_ATP_LIG.pdb


 39 41  0  0  0  0  0  0  0  0999 V2000
  -10.9802  204.6815  116.8170 C   0  0  0  0  0  0  0  0  0  0  0  0
  -11.1156  204.2676  115.4316 O   0  0  0  0  0  0  0  0  0  0  0  0
  -10.6828  205.3513  114.5748 C   0  0  0  0  0  0  0  0  0  0  0  0
  -10.6034  206.6097  115.4364 C   0  0  0  0  0  0  0  0  0  0  0  0
  -10.2356  206.0193  116.7890 C   0  0  0  0  0  0  0  0  0  0  0  0
   -8.8047  205.8405  116.8157 O   0  0  0  0  0  0  0  0  0  0  0  0
   -9.6119  207.5284  114.9749 O   0  0  0  0  0  0  0  0  0  0  0  0
   -8.5822  204.9637  116.4511 H   0  0  0  0  0  0  0  0  0  0  0  0
   -8.8256  207.3974  115.5462 H   0  0  0  0  0  0  0  0  0  0  0  0
  -11.5601  205.4524  113.4278 N   0  0  0  0  0  0  0  0  0  0  0  0
  -12.7502  204.7883  113.2720 C   0  0  0  0  0  0  0  0  0  0  0  0
  -13.3200  205.0591  112.1149 N   0  0  0  0  0  0  0  0  0  0  0  0
  -12.4536  205.9385  111.4940 C   0  0  0  0  0  0  0  0  0  0  0  0
  -12.4832  206.5819  110.2459 C   0  0  0  0  0  0  0  0  0  0  0  0
  -13.5205  206.4299  109.3326 N   0  0  0  0  0  0  0  0  0  0  0  0
  -11.4411  207.3730  109.9009 N   0  0  0  0  0  0  0  0  0  0  0  0
  -10.4312  207.5242  110.7853 C   0  0  0  0  0  0  0  0  0  0  0  0
  -10.2936  206.9573  111.9994 N   0  0  0  0  0  0  0  0  0  0  0  0
  -11.3479  206.1810  112.2919 C   0  0  0  0  0  0  0  0  0  0  0  0
  -14.0636  205.5876  109.4836 H   0  0  0  0  0  0  0  0  0  0  0  0
  -13.2183  206.6319  108.3892 H   0  0  0  0  0  0  0  0  0  0  0  0
  -12.3587  204.7817  117.4996 C   0  0  0  0  0  0  0  0  0  0  0  0
  -13.3022  203.9639  116.8184 O   0  0  0  0  0  0  0  0  0  0  0  0
  -14.7705  204.5390  116.5028 P   0  0  0  0  0  0  0  0  0  0  0  0
  -15.5335  203.8865  115.4014 O   0  0  0  0  0  0  0  0  0  0  0  0
  -15.4860  204.3465  117.9235 O   0  0  0  0  0  0  0  0  0  0  0  0
  -15.9817  203.5081  117.9584 H   0  0  0  0  0  0  0  0  0  0  0  0
  -14.6713  206.1173  116.4333 O   0  0  0  0  0  0  0  0  0  0  0  0
  -15.0473  207.0726  115.2374 P   0  0  0  0  0  0  0  0  0  0  0  0
  -13.9286  207.3471  114.2817 O   0  0  0  0  0  0  0  0  0  0  0  0
  -15.4388  208.4175  116.0176 O   0  0  0  0  0  0  0  0  0  0  0  0
  -14.7956  209.1222  115.8355 H   0  0  0  0  0  0  0  0  0  0  0  0
  -16.4098  206.6145  114.5764 O   0  0  0  0  0  0  0  0  0  0  0  0
  -16.6361  206.1747  113.0766 P   0  0  0  0  0  0  0  0  0  0  0  0
  -18.0164  206.3454  112.5427 O   0  0  0  0  0  0  0  0  0  0  0  0
  -15.5455  206.9094  112.1759 O   0  0  0  0  0  0  0  0  0  0  0  0
  -16.1568  204.6540  112.9770 O   0  0  0  0  0  0  0  0  0  0  0  0
  -15.9700  207.4652  111.4964 H   0  0  0  0  0  0  0  0  0  0  0  0
  -16.9062  204.0447  112.8533 H   0  0  0  0  0  0  0  0  0  0  0  0
 34 35  2  0  0  0
 34 36  1  0  0  0
 34 37  1  0  0  0
 34 33  1  0  0  0
 36 38  1  0  0  0
 37 39  1  0  0  0
 33 29  1  0  0  0
 29 30  2  0  0  0
 29 31  1  0  0  0
 29 28  1  0  0  0
 31 32  1  0  0  0
 24 26  1  0  0  0
 24 23  1  0  0  0
 24 25  2  0  0  0
 24 28  1  0  0  0
 26 27  1  0  0  0
 23 22  1  0  0  0
 22  1  1  0  0  0
  1  2  1  0  0  0
  1  5  1  0  0  0
  2  3  1  0  0  0
  3  4  1  0  0  0
  3 10  1  0  0  0
  4  5  1  0  0  0
  4  7  1  0  0  0
  5  6  1  0  0  0
  6  8  1  0  0  0
  7  9  1  0  0  0
 10 11  1  0  0  0
 10 19  1  0  0  0
 11 12  2  0  0  0
 12 13  1  0  0  0
 13 14  1  0  0  0
 13 19  2  0  0  0
 14 15  1  0  0  0
 14 16  2  0  0  0
 15 20  1  0  0  0
 15 21  1  0  0  0
 16 17  1  0  0  0
 17 18  2  0  0  0
 18 19  1  0  0  0
M  END
> <minimizedAffinity>
-7.50315

$$$$
data/CDK2/cocry_dataset/1b38_ATP_LIG.pdb


 39 41  0  0  0  0  0  0  0  0999 V2000
  -12.8739  204.7351  117.0111 C   0  0  0  0  0  0  0  0  0  0  0  0
  -12.1994  205.0541  115.7652 O   0  0  0  0  0  0  0  0  0  0  0  0
  -10.7766  205.1505  116.0145 C   0  0  0  0  0  0  0  0  0  0  0  0
  -10.5839  205.2410  117.5267 C   0  0  0  0  0  0  0  0  0  0  0  0
  -11.7684  204.4274  118.0250 C   0  0  0  0  0  0  0  0  0  0  0  0
  -11.3871  203.0366  118.0013 O   0  0  0  0  0  0  0  0  0  0  0  0
   -9.3418  204.6811  117.9557 O   0  0  0  0  0  0  0  0  0  0  0  0
  -11.5884  202.6618  117.1237 H   0  0  0  0  0  0  0  0  0  0  0  0
   -9.5448  203.7829  118.2930 H   0  0  0  0  0  0  0  0  0  0  0  0
  -10.2186  206.2540  115.2620 N   0  0  0  0  0  0  0  0  0  0  0  0
   -9.3894  207.2245  115.7641 C   0  0  0  0  0  0  0  0  0  0  0  0
   -9.0585  208.1141  114.8499 N   0  0  0  0  0  0  0  0  0  0  0  0
   -9.7080  207.6979  113.7035 C   0  0  0  0  0  0  0  0  0  0  0  0
   -9.7689  208.2202  112.4011 C   0  0  0  0  0  0  0  0  0  0  0  0
   -9.0923  209.3690  112.0065 N   0  0  0  0  0  0  0  0  0  0  0  0
  -10.5416  207.5898  111.4866 N   0  0  0  0  0  0  0  0  0  0  0  0
  -11.2005  206.4729  111.8652 C   0  0  0  0  0  0  0  0  0  0  0  0
  -11.2211  205.8872  113.0780 N   0  0  0  0  0  0  0  0  0  0  0  0
  -10.4449  206.5510  113.9479 C   0  0  0  0  0  0  0  0  0  0  0  0
   -8.8386  209.9683  112.7835 H   0  0  0  0  0  0  0  0  0  0  0  0
   -9.5285  209.8002  111.2028 H   0  0  0  0  0  0  0  0  0  0  0  0
  -13.7848  205.8958  117.4576 C   0  0  0  0  0  0  0  0  0  0  0  0
  -14.8872  206.0222  116.5678 O   0  0  0  0  0  0  0  0  0  0  0  0
  -14.9183  207.2314  115.5081 P   0  0  0  0  0  0  0  0  0  0  0  0
  -14.7613  208.6118  116.0474 O   0  0  0  0  0  0  0  0  0  0  0  0
  -13.7061  206.8234  114.5431 O   0  0  0  0  0  0  0  0  0  0  0  0
  -12.8801  207.2692  114.8059 H   0  0  0  0  0  0  0  0  0  0  0  0
  -16.1531  207.0031  114.5441 O   0  0  0  0  0  0  0  0  0  0  0  0
  -16.5659  205.6928  113.7717 P   0  0  0  0  0  0  0  0  0  0  0  0
  -18.0269  205.5819  113.4660 O   0  0  0  0  0  0  0  0  0  0  0  0
  -16.1424  204.5588  114.8231 O   0  0  0  0  0  0  0  0  0  0  0  0
  -16.9252  204.1032  115.1739 H   0  0  0  0  0  0  0  0  0  0  0  0
  -15.5942  205.4481  112.5473 O   0  0  0  0  0  0  0  0  0  0  0  0
  -14.5428  204.2805  112.3891 P   0  0  0  0  0  0  0  0  0  0  0  0
  -13.9074  204.1453  111.0483 O   0  0  0  0  0  0  0  0  0  0  0  0
  -13.4660  204.4230  113.5556 O   0  0  0  0  0  0  0  0  0  0  0  0
  -15.2954  202.9373  112.8151 O   0  0  0  0  0  0  0  0  0  0  0  0
  -12.5685  204.5349  113.1913 H   0  0  0  0  0  0  0  0  0  0  0  0
  -15.4624  202.3569  112.0513 H   0  0  0  0  0  0  0  0  0  0  0  0
 34 35  2  0  0  0
 34 36  1  0  0  0
 34 37  1  0  0  0
 34 33  1  0  0  0
 36 38  1  0  0  0
 37 39  1  0  0  0
 33 29  1  0  0  0
 29 30  2  0  0  0
 29 31  1  0  0  0
 29 28  1  0  0  0
 31 32  1  0  0  0
 24 26  1  0  0  0
 24 23  1  0  0  0
 24 25  2  0  0  0
 24 28  1  0  0  0
 26 27  1  0  0  0
 23 22  1  0  0  0
 22  1  1  0  0  0
  1  2  1  0  0  0
  1  5  1  0  0  0
  2  3  1  0  0  0
  3  4  1  0  0  0
  3 10  1  0  0  0
  4  5  1  0  0  0
  4  7  1  0  0  0
  5  6  1  0  0  0
  6  8  1  0  0  0
  7  9  1  0  0  0
 10 11  1  0  0  0
 10 19  1  0  0  0
 11 12  2  0  0  0
 12 13  1  0  0  0
 13 14  1  0  0  0
 13 19  2  0  0  0
 14 15  1  0  0  0
 14 16  2  0  0  0
 15 20  1  0  0  0
 15 21  1  0  0  0
 16 17  1  0  0  0
 17 18  2  0  0  0
 18 19  1  0  0  0
M  END
> <minimizedAffinity>
-7.49140

$$$$
