# created with PyMOL 2.5.0
@<TRIPOS>MOLECULE
data/CDK2/cocry_dataset/1b38_ATP_LIG.pdb
47 49 1                 
SMALL
USER_CHARGES
@<TRIPOS>ATOM
1	 H06	-9.034	204.047	117.304	 H	1	UNK0	0.000	
2	 H03	-10.547	206.264	117.902	 H	1	UNK0	0.000	
3	 H07	-9.045	207.256	116.798	 H	1	UNK0	0.000	
4	 H08	-9.179	209.706	111.058	 H	1	UNK0	0.000	
5	 H13	-13.517	207.548	113.942	 H	1	UNK0	0.000	
6	 H09	-8.514	209.867	112.668	 H	1	UNK0	0.000	
7	 H14	-15.946	203.744	114.354	 H	1	UNK0	0.000	
8	 H11	-13.211	206.823	117.449	 H	1	UNK0	0.000	
9	 H02	-10.229	204.274	115.668	 H	1	UNK0	0.000	
10	 H12	-14.154	205.699	118.464	 H	1	UNK0	0.000	
11	 H01	-13.537	203.876	116.907	 H	1	UNK0	0.000	
12	 H15	-13.183	203.551	113.839	 H	1	UNK0	0.000	
13	 H10	-11.791	205.983	111.091	 H	1	UNK0	0.000	
14	 H16	-15.419	202.927	113.767	 H	1	UNK0	0.000	
15	 H05	-11.305	202.742	117.091	 H	1	UNK0	0.000	
16	 H04	-12.092	204.658	119.040	 H	1	UNK0	0.000	
17	   C	-12.874	204.735	117.011	C.3	1	UNK0	0.000	
18	   O	-12.199	205.054	115.765	O.3	1	UNK0	0.000	
19	   C	-10.777	205.150	116.015	C.3	1	UNK0	0.000	
20	   C	-10.584	205.241	117.527	C.3	1	UNK0	0.000	
21	   C	-11.768	204.427	118.025	C.3	1	UNK0	0.000	
22	   O	-11.387	203.037	118.001	O.3	1	UNK0	0.000	
23	   O	-9.342	204.681	117.956	O.3	1	UNK0	0.000	
24	   N	-10.219	206.254	115.262	N.pl3	1	UNK0	0.000	
25	   C	-9.389	207.225	115.764	C.2	1	UNK0	0.000	
26	   N	-9.059	208.114	114.850	N.2	1	UNK0	0.000	
27	   C	-9.708	207.698	113.703	C.2	1	UNK0	0.000	
28	   C	-9.769	208.220	112.401	C.2	1	UNK0	0.000	
29	   N	-9.092	209.369	112.007	N.pl3	1	UNK0	0.000	
30	   N	-10.542	207.590	111.487	N.2	1	UNK0	0.000	
31	   C	-11.200	206.473	111.865	C.2	1	UNK0	0.000	
32	   N	-11.221	205.887	113.078	N.2	1	UNK0	0.000	
33	   C	-10.445	206.551	113.948	C.2	1	UNK0	0.000	
34	   C	-13.785	205.896	117.458	C.3	1	UNK0	0.000	
35	   O	-14.887	206.022	116.568	O.3	1	UNK0	0.000	
36	   P	-14.918	207.231	115.508	P.3	1	UNK0	0.000	
37	   O	-14.761	208.612	116.047	O.co2	1	UNK0	0.000	
38	   O	-13.706	206.823	114.543	O.3	1	UNK0	0.000	
39	   O	-16.153	207.003	114.544	O.3	1	UNK0	0.000	
40	   P	-16.566	205.693	113.772	P.3	1	UNK0	0.000	
41	   O	-18.027	205.582	113.466	O.co2	1	UNK0	0.000	
42	   O	-16.142	204.559	114.823	O.3	1	UNK0	0.000	
43	   O	-15.594	205.448	112.547	O.3	1	UNK0	0.000	
44	   P	-14.543	204.281	112.389	P.3	1	UNK0	0.000	
45	   O	-13.907	204.145	111.048	O.co2	1	UNK0	0.000	
46	   O	-13.466	204.423	113.556	O.3	1	UNK0	0.000	
47	   O	-15.295	202.937	112.815	O.3	1	UNK0	0.000	
@<TRIPOS>BOND
1 11 17 1
2 17 18 1
3 17 21 1
4 17 34 1
5 18 19 1
6 9 19 1
7 19 20 1
8 19 24 1
9 2 20 1
10 20 21 1
11 20 23 1
12 16 21 1
13 21 22 1
14 15 22 1
15 1 23 1
16 24 25 1
17 24 33 1
18 3 25 1
19 25 26 2
20 26 27 1
21 27 28 1
22 27 33 2
23 28 29 1
24 28 30 2
25 4 29 1
26 6 29 1
27 30 31 1
28 13 31 1
29 31 32 2
30 32 33 1
31 8 34 1
32 10 34 1
33 34 35 1
34 35 36 1
35 36 37 2
36 36 38 1
37 36 39 1
38 5 38 1
39 39 40 1
40 40 41 2
41 40 42 1
42 7 42 1
43 40 43 1
44 43 44 1
45 44 45 2
46 44 46 1
47 44 47 1
48 12 46 1
49 14 47 1
@<TRIPOS>SUBSTRUCTURE
1	UNK0	1	GROUP	1 ****	UNK
