# created with PyMOL 2.5.0
@<TRIPOS>MOLECULE
data/CDK2/cocry_dataset/1b39_ATP_LIG.pdb
47 49 1                 
SMALL
USER_CHARGES
@<TRIPOS>ATOM
1	   C	-12.448	205.031	117.985	C.3	1	UNK0	0.000	
2	   O	-12.139	204.911	116.578	O.3	1	UNK0	0.000	
3	   C	-10.708	204.868	116.431	C.3	1	UNK0	0.000	
4	   C	-10.090	205.376	117.730	C.3	1	UNK0	0.000	
5	   C	-11.120	204.915	118.746	C.3	1	UNK0	0.000	
6	   O	-10.799	203.558	119.103	O.3	1	UNK0	0.000	
7	   O	-8.806	204.807	117.992	O.3	1	UNK0	0.000	
8	   N	-10.309	205.606	115.253	N.pl3	1	UNK0	0.000	
9	   C	-9.251	206.481	115.211	C.2	1	UNK0	0.000	
10	   N	-9.207	207.148	114.078	N.2	1	UNK0	0.000	
11	   C	-10.276	206.673	113.352	C.2	1	UNK0	0.000	
12	   C	-10.786	207.019	112.087	C.2	1	UNK0	0.000	
13	   N	-10.267	208.048	111.324	N.pl3	1	UNK0	0.000	
14	   N	-11.844	206.326	111.607	N.2	1	UNK0	0.000	
15	   C	-12.388	205.366	112.383	C.2	1	UNK0	0.000	
16	   N	-12.025	204.984	113.628	N.2	1	UNK0	0.000	
17	   C	-10.951	205.679	114.049	C.2	1	UNK0	0.000	
18	   C	-13.131	206.369	118.269	C.3	1	UNK0	0.000	
19	   O	-12.996	207.272	117.177	O.3	1	UNK0	0.000	
20	   P	-14.438	207.671	116.309	P.3	1	UNK0	0.000	
21	   O	-15.729	208.029	115.532	O.co2	1	UNK0	0.000	
22	   O	-13.634	207.167	114.965	O.3	1	UNK0	0.000	
23	   O	-15.119	206.139	116.736	O.3	1	UNK0	0.000	
24	   P	-15.623	205.312	115.302	P.3	1	UNK0	0.000	
25	   O	-16.427	204.267	116.104	O.co2	1	UNK0	0.000	
26	   O	-14.202	204.495	115.226	O.3	1	UNK0	0.000	
27	   O	-16.127	204.486	113.869	O.3	1	UNK0	0.000	
28	   P	-16.877	205.423	112.813	P.3	1	UNK0	0.000	
29	   O	-16.361	205.495	111.425	O.co2	1	UNK0	0.000	
30	   O	-18.416	205.023	112.922	O.3	1	UNK0	0.000	
31	   O	-16.886	206.854	113.520	O.3	1	UNK0	0.000	
32	 H01	-13.138	204.250	118.303	 H	1	UNK0	0.000	
33	 H02	-10.345	203.853	116.269	 H	1	UNK0	0.000	
34	 H03	-9.898	206.449	117.729	 H	1	UNK0	0.000	
35	 H04	-11.157	205.485	119.675	 H	1	UNK0	0.000	
36	 H05	-10.679	203.037	118.306	 H	1	UNK0	0.000	
37	 H06	-8.499	204.338	117.213	 H	1	UNK0	0.000	
38	 H07	-8.533	206.608	116.021	 H	1	UNK0	0.000	
39	 H08	-10.672	208.264	110.424	 H	1	UNK0	0.000	
40	 H09	-9.481	208.584	111.666	 H	1	UNK0	0.000	
41	 H10	-13.230	204.827	111.950	 H	1	UNK0	0.000	
42	 H11	-14.193	206.181	118.424	 H	1	UNK0	0.000	
43	 H12	-12.680	206.815	119.155	 H	1	UNK0	0.000	
44	 H13	-13.561	207.895	114.343	 H	1	UNK0	0.000	
45	 H14	-13.929	204.412	114.310	 H	1	UNK0	0.000	
46	 H15	-18.716	205.142	113.826	 H	1	UNK0	0.000	
47	 H16	-16.009	207.241	113.470	 H	1	UNK0	0.000	
@<TRIPOS>BOND
1 28 29 2
2 28 30 1
3 28 31 1
4 27 28 1
5 24 27 1
6 24 25 2
7 24 26 1
8 23 24 1
9 20 22 1
10 19 20 1
11 20 21 2
12 20 23 1
13 18 19 1
14 1 18 1
15 1 2 1
16 1 5 1
17 2 3 1
18 3 4 1
19 3 8 1
20 4 5 1
21 4 7 1
22 5 6 1
23 8 9 1
24 8 17 1
25 9 10 2
26 10 11 1
27 11 12 1
28 11 17 2
29 12 13 1
30 12 14 2
31 14 15 1
32 15 16 2
33 16 17 1
34 1 32 1
35 3 33 1
36 4 34 1
37 5 35 1
38 6 36 1
39 7 37 1
40 9 38 1
41 13 39 1
42 13 40 1
43 15 41 1
44 18 42 1
45 18 43 1
46 22 44 1
47 26 45 1
48 30 46 1
49 31 47 1
@<TRIPOS>SUBSTRUCTURE
1	UNK0	1	GROUP	1 ****	UNK
