# created with PyMOL 2.5.0
@<TRIPOS>MOLECULE
data/CDK2/cocry_dataset/1ckp_PVB_LIG.pdb
28 30 1                 
SMALL
USER_CHARGES
@<TRIPOS>ATOM
1	   N	-12.537	206.709	109.879	N.2	1	UNK0	0.000	
2	   C	-11.368	207.370	109.960	C.2	1	UNK0	0.000	
3	   N	-10.496	207.379	110.979	N.2	1	UNK0	0.000	
4	   C	-10.920	206.595	111.982	C.2	1	UNK0	0.000	
5	   N	-10.307	206.378	113.181	N.pl3	1	UNK0	0.000	
6	   C	-9.069	206.963	113.623	C.3	1	UNK0	0.000	
7	   C	-11.091	205.517	113.901	C.2	1	UNK0	0.000	
8	   N	-12.175	205.166	113.237	N.2	1	UNK0	0.000	
9	   C	-12.086	205.844	112.035	C.2	1	UNK0	0.000	
10	   C	-12.939	205.927	110.922	C.2	1	UNK0	0.000	
11	   N	-14.156	205.229	110.849	N.pl3	1	UNK0	0.000	
12	   C	-15.307	205.452	111.625	C.2	1	UNK0	0.000	
13	   C	-15.469	204.781	112.843	C.2	1	UNK0	0.000	
14	   C	-16.655	204.907	113.577	C.2	1	UNK0	0.000	
15	   C	-17.687	205.721	113.108	C.2	1	UNK0	0.000	
16	   C	-17.526	206.408	111.910	C.2	1	UNK0	0.000	
17	  Cl	-18.785	207.424	111.324	Cl	1	UNK0	0.000	
18	   C	-16.351	206.271	111.174	C.2	1	UNK0	0.000	
19	 H01	-11.097	207.972	109.092	 H	1	UNK0	0.000	
20	 H02	-8.324	206.875	112.833	 H	1	UNK0	0.000	
21	 H03	-9.228	208.015	113.857	 H	1	UNK0	0.000	
22	 H04	-8.717	206.441	114.513	 H	1	UNK0	0.000	
23	 H05	-10.849	205.164	114.904	 H	1	UNK0	0.000	
24	 H06	-14.210	204.487	110.165	 H	1	UNK0	0.000	
25	 H07	-14.663	204.155	113.225	 H	1	UNK0	0.000	
26	 H08	-16.773	204.367	114.516	 H	1	UNK0	0.000	
27	 H09	-18.613	205.816	113.676	 H	1	UNK0	0.000	
28	 H10	-16.242	206.810	110.232	 H	1	UNK0	0.000	
@<TRIPOS>BOND
1 1 2 1
2 1 10 2
3 2 3 2
4 3 4 1
5 4 5 1
6 4 9 2
7 5 6 1
8 5 7 1
9 7 8 2
10 8 9 1
11 9 10 1
12 10 11 1
13 11 12 1
14 12 13 1
15 12 18 2
16 13 14 2
17 14 15 1
18 15 16 2
19 16 17 1
20 16 18 1
21 2 19 1
22 6 20 1
23 6 21 1
24 6 22 1
25 7 23 1
26 11 24 1
27 13 25 1
28 14 26 1
29 15 27 1
30 18 28 1
@<TRIPOS>SUBSTRUCTURE
1	UNK0	1	GROUP	1 ****	UNK
