# created with PyMOL 2.5.0
@<TRIPOS>MOLECULE
data/CDK2/cocry_dataset/1ckp_PVB_LIG.pdb
28 30 1                 
SMALL
USER_CHARGES
@<TRIPOS>ATOM
1	 H06	-14.698	202.740	113.764	 H	1	UNK0	0.000	
2	 H07	-13.266	204.302	112.045	 H	1	UNK0	0.000	
3	 H08	-13.634	205.972	110.245	 H	1	UNK0	0.000	
4	 H01	-16.308	202.811	118.164	 H	1	UNK0	0.000	
5	 H10	-17.254	205.004	113.495	 H	1	UNK0	0.000	
6	 H05	-12.794	207.882	116.250	 H	1	UNK0	0.000	
7	 H03	-14.660	207.475	119.190	 H	1	UNK0	0.000	
8	 H02	-13.001	207.936	118.738	 H	1	UNK0	0.000	
9	 H09	-15.819	207.146	110.057	 H	1	UNK0	0.000	
10	 H04	-13.307	206.365	119.516	 H	1	UNK0	0.000	
11	   N	-15.696	203.184	116.222	N.2	1	UNK0	0.000	
12	   C	-15.754	203.501	117.528	C.2	1	UNK0	0.000	
13	   N	-15.212	204.564	118.142	N.2	1	UNK0	0.000	
14	   C	-14.571	205.351	117.265	C.2	1	UNK0	0.000	
15	   N	-13.887	206.502	117.529	N.pl3	1	UNK0	0.000	
16	   C	-13.703	207.106	118.822	C.3	1	UNK0	0.000	
17	   C	-13.387	206.972	116.344	C.2	1	UNK0	0.000	
18	   N	-13.708	206.192	115.331	N.2	1	UNK0	0.000	
19	   C	-14.443	205.165	115.896	C.2	1	UNK0	0.000	
20	   C	-15.029	204.005	115.360	C.2	1	UNK0	0.000	
21	   N	-14.963	203.687	113.994	N.pl3	1	UNK0	0.000	
22	   C	-15.227	204.545	112.912	C.2	1	UNK0	0.000	
23	   C	-14.222	204.822	111.978	C.2	1	UNK0	0.000	
24	   C	-14.431	205.757	110.957	C.2	1	UNK0	0.000	
25	   C	-15.656	206.415	110.849	C.2	1	UNK0	0.000	
26	   C	-16.668	206.131	111.760	C.2	1	UNK0	0.000	
27	  Cl	-18.189	206.926	111.633	Cl	1	UNK0	0.000	
28	   C	-16.454	205.210	112.784	C.2	1	UNK0	0.000	
@<TRIPOS>BOND
1 11 12 1
2 11 20 2
3 4 12 1
4 12 13 2
5 13 14 1
6 14 15 1
7 14 19 2
8 15 16 1
9 15 17 1
10 7 16 1
11 8 16 1
12 10 16 1
13 6 17 1
14 17 18 2
15 18 19 1
16 19 20 1
17 20 21 1
18 1 21 1
19 21 22 1
20 22 23 1
21 22 28 2
22 2 23 1
23 23 24 2
24 3 24 1
25 24 25 1
26 9 25 1
27 25 26 2
28 26 27 1
29 26 28 1
30 5 28 1
@<TRIPOS>SUBSTRUCTURE
1	UNK0	1	GROUP	1 ****	UNK
