data/CDK2/cocry_dataset/1ckp_PVB_LIG.pdb
 OpenBabel03092321123D

 19 21  0  0  0  0  0  0  0  0999 V2000
  -13.8712  204.0275  111.8139 N   0  0  0  0  0  0  0  0  0  0  0  0
  -14.8323  203.3905  112.5066 C   0  0  0  0  0  0  0  0  0  0  0  0
  -16.0691  203.8266  112.7905 N   0  0  0  0  0  0  0  0  0  0  0  0
  -16.2822  205.0435  112.2673 C   0  0  0  0  0  0  0  0  0  0  0  0
  -17.4097  205.8050  112.3693 N   0  0  0  0  0  0  0  0  0  0  0  0
  -18.6112  205.4557  113.0793 C   0  0  0  0  0  0  0  0  0  0  0  0
  -17.1877  206.9734  111.6916 C   0  0  0  0  0  0  0  0  0  0  0  0
  -15.9830  207.0111  111.1577 N   0  0  0  0  0  0  0  0  0  0  0  0
  -15.3994  205.8106  111.5200 C   0  0  0  0  0  0  0  0  0  0  0  0
  -14.1218  205.2676  111.3021 C   0  0  0  0  0  0  0  0  0  0  0  0
  -13.1276  205.9420  110.5746 N   0  0  0  0  0  0  0  0  0  0  0  0
  -13.4560  206.3434  109.7032 H   0  0  0  0  0  0  0  0  0  0  0  0
  -11.9019  206.4245  111.0652 C   0  0  0  0  0  0  0  0  0  0  0  0
  -10.8863  206.7894  110.1725 C   0  0  0  0  0  0  0  0  0  0  0  0
   -9.6225  207.1678  110.6417 C   0  0  0  0  0  0  0  0  0  0  0  0
   -9.3653  207.2033  112.0126 C   0  0  0  0  0  0  0  0  0  0  0  0
  -10.3745  206.8643  112.9071 C   0  0  0  0  0  0  0  0  0  0  0  0
  -10.0762  206.9136  114.6009 Cl  0  0  0  0  0  0  0  0  0  0  0  0
  -11.6274  206.4737  112.4387 C   0  0  0  0  0  0  0  0  0  0  0  0
  1  2  1  0  0  0  0
  1 10  2  0  0  0  0
  2  3  2  0  0  0  0
  3  4  1  0  0  0  0
  4  5  1  0  0  0  0
  4  9  2  0  0  0  0
  5  6  1  0  0  0  0
  5  7  1  0  0  0  0
  7  8  2  0  0  0  0
  8  9  1  0  0  0  0
  9 10  1  0  0  0  0
 10 11  1  0  0  0  0
 11 13  1  0  0  0  0
 11 12  1  0  0  0  0
 13 14  1  0  0  0  0
 13 19  2  0  0  0  0
 14 15  2  0  0  0  0
 15 16  1  0  0  0  0
 16 17  2  0  0  0  0
 17 18  1  0  0  0  0
 17 19  1  0  0  0  0
M  END
>  <minimizedAffinity>
-6.90171

$$$$
