data/CDK2/cocry_dataset/1ckp_PVB_LIG.pdb
 OpenBabel03092321123D

 19 21  0  0  0  0  0  0  0  0999 V2000
  -15.6960  203.1840  116.2219 N   0  0  0  0  0  0  0  0  0  0  0  0
  -15.7540  203.5010  117.5280 C   0  0  0  0  0  0  0  0  0  0  0  0
  -15.2124  204.5640  118.1421 N   0  0  0  0  0  0  0  0  0  0  0  0
  -14.5710  205.3513  117.2652 C   0  0  0  0  0  0  0  0  0  0  0  0
  -13.8869  206.5020  117.5286 N   0  0  0  0  0  0  0  0  0  0  0  0
  -13.7029  207.1056  118.8216 C   0  0  0  0  0  0  0  0  0  0  0  0
  -13.3870  206.9717  116.3441 C   0  0  0  0  0  0  0  0  0  0  0  0
  -13.7082  206.1919  115.3309 N   0  0  0  0  0  0  0  0  0  0  0  0
  -14.4426  205.1649  115.8959 C   0  0  0  0  0  0  0  0  0  0  0  0
  -15.0286  204.0054  115.3603 C   0  0  0  0  0  0  0  0  0  0  0  0
  -14.9632  203.6871  113.9940 N   0  0  0  0  0  0  0  0  0  0  0  0
  -14.9972  202.6921  113.8010 H   0  0  0  0  0  0  0  0  0  0  0  0
  -15.2271  204.5454  112.9125 C   0  0  0  0  0  0  0  0  0  0  0  0
  -14.2217  204.8215  111.9775 C   0  0  0  0  0  0  0  0  0  0  0  0
  -14.4305  205.7572  110.9569 C   0  0  0  0  0  0  0  0  0  0  0  0
  -15.6562  206.4152  110.8490 C   0  0  0  0  0  0  0  0  0  0  0  0
  -16.6680  206.1308  111.7596 C   0  0  0  0  0  0  0  0  0  0  0  0
  -18.1886  206.9258  111.6331 Cl  0  0  0  0  0  0  0  0  0  0  0  0
  -16.4542  205.2103  112.7835 C   0  0  0  0  0  0  0  0  0  0  0  0
  1  2  1  0  0  0  0
  1 10  2  0  0  0  0
  2  3  2  0  0  0  0
  3  4  1  0  0  0  0
  4  5  1  0  0  0  0
  4  9  2  0  0  0  0
  5  6  1  0  0  0  0
  5  7  1  0  0  0  0
  7  8  2  0  0  0  0
  8  9  1  0  0  0  0
  9 10  1  0  0  0  0
 10 11  1  0  0  0  0
 11 13  1  0  0  0  0
 11 12  1  0  0  0  0
 13 14  1  0  0  0  0
 13 19  2  0  0  0  0
 14 15  2  0  0  0  0
 15 16  1  0  0  0  0
 16 17  2  0  0  0  0
 17 18  1  0  0  0  0
 17 19  1  0  0  0  0
M  END
>  <minimizedAffinity>
-6.78495

$$$$
