data/CDK2/cocry_dataset/1ckp_PVB_LIG.pdb


 19 21  0  0  0  0  0  0  0  0999 V2000
  -12.5369  206.7093  109.8787 N   0  0  0  0  0  0  0  0  0  0  0  0
  -11.3683  207.3705  109.9595 C   0  0  0  0  0  0  0  0  0  0  0  0
  -10.4959  207.3790  110.9789 N   0  0  0  0  0  0  0  0  0  0  0  0
  -10.9201  206.5954  111.9820 C   0  0  0  0  0  0  0  0  0  0  0  0
  -10.3072  206.3775  113.1813 N   0  0  0  0  0  0  0  0  0  0  0  0
   -9.0694  206.9626  113.6231 C   0  0  0  0  0  0  0  0  0  0  0  0
  -11.0913  205.5169  113.9012 C   0  0  0  0  0  0  0  0  0  0  0  0
  -12.1746  205.1659  113.2370 N   0  0  0  0  0  0  0  0  0  0  0  0
  -12.0857  205.8438  112.0346 C   0  0  0  0  0  0  0  0  0  0  0  0
  -12.9395  205.9267  110.9217 C   0  0  0  0  0  0  0  0  0  0  0  0
  -14.1562  205.2291  110.8485 N   0  0  0  0  0  0  0  0  0  0  0  0
  -14.0862  204.3261  110.3923 H   0  0  0  0  0  0  0  0  0  0  0  0
  -15.3067  205.4525  111.6247 C   0  0  0  0  0  0  0  0  0  0  0  0
  -15.4693  204.7815  112.8431 C   0  0  0  0  0  0  0  0  0  0  0  0
  -16.6554  204.9066  113.5767 C   0  0  0  0  0  0  0  0  0  0  0  0
  -17.6872  205.7205  113.1078 C   0  0  0  0  0  0  0  0  0  0  0  0
  -17.5257  206.4082  111.9101 C   0  0  0  0  0  0  0  0  0  0  0  0
  -18.7845  207.4243  111.3241 Cl  0  0  0  0  0  0  0  0  0  0  0  0
  -16.3507  206.2715  111.1736 C   0  0  0  0  0  0  0  0  0  0  0  0
  1  2  1  0  0  0
  1 10  2  0  0  0
  2  3  2  0  0  0
  3  4  1  0  0  0
  4  5  1  0  0  0
  4  9  2  0  0  0
  5  6  1  0  0  0
  5  7  1  0  0  0
  7  8  2  0  0  0
  8  9  1  0  0  0
  9 10  1  0  0  0
 10 11  1  0  0  0
 11 13  1  0  0  0
 11 12  1  0  0  0
 13 14  1  0  0  0
 13 19  2  0  0  0
 14 15  2  0  0  0
 15 16  1  0  0  0
 16 17  2  0  0  0
 17 18  1  0  0  0
 17 19  1  0  0  0
M  END
> <minimizedAffinity>
-7.17756

$$$$
data/CDK2/cocry_dataset/1ckp_PVB_LIG.pdb


 19 21  0  0  0  0  0  0  0  0999 V2000
  -13.8712  204.0275  111.8139 N   0  0  0  0  0  0  0  0  0  0  0  0
  -14.8323  203.3905  112.5066 C   0  0  0  0  0  0  0  0  0  0  0  0
  -16.0691  203.8266  112.7905 N   0  0  0  0  0  0  0  0  0  0  0  0
  -16.2822  205.0435  112.2673 C   0  0  0  0  0  0  0  0  0  0  0  0
  -17.4097  205.8050  112.3693 N   0  0  0  0  0  0  0  0  0  0  0  0
  -18.6112  205.4557  113.0793 C   0  0  0  0  0  0  0  0  0  0  0  0
  -17.1877  206.9734  111.6916 C   0  0  0  0  0  0  0  0  0  0  0  0
  -15.9830  207.0111  111.1577 N   0  0  0  0  0  0  0  0  0  0  0  0
  -15.3994  205.8106  111.5200 C   0  0  0  0  0  0  0  0  0  0  0  0
  -14.1218  205.2676  111.3021 C   0  0  0  0  0  0  0  0  0  0  0  0
  -13.1276  205.9420  110.5746 N   0  0  0  0  0  0  0  0  0  0  0  0
  -13.4560  206.3434  109.7032 H   0  0  0  0  0  0  0  0  0  0  0  0
  -11.9019  206.4245  111.0652 C   0  0  0  0  0  0  0  0  0  0  0  0
  -10.8863  206.7894  110.1725 C   0  0  0  0  0  0  0  0  0  0  0  0
   -9.6225  207.1678  110.6417 C   0  0  0  0  0  0  0  0  0  0  0  0
   -9.3653  207.2033  112.0126 C   0  0  0  0  0  0  0  0  0  0  0  0
  -10.3745  206.8643  112.9071 C   0  0  0  0  0  0  0  0  0  0  0  0
  -10.0762  206.9136  114.6009 Cl  0  0  0  0  0  0  0  0  0  0  0  0
  -11.6274  206.4737  112.4387 C   0  0  0  0  0  0  0  0  0  0  0  0
  1  2  1  0  0  0
  1 10  2  0  0  0
  2  3  2  0  0  0
  3  4  1  0  0  0
  4  5  1  0  0  0
  4  9  2  0  0  0
  5  6  1  0  0  0
  5  7  1  0  0  0
  7  8  2  0  0  0
  8  9  1  0  0  0
  9 10  1  0  0  0
 10 11  1  0  0  0
 11 13  1  0  0  0
 11 12  1  0  0  0
 13 14  1  0  0  0
 13 19  2  0  0  0
 14 15  2  0  0  0
 15 16  1  0  0  0
 16 17  2  0  0  0
 17 18  1  0  0  0
 17 19  1  0  0  0
M  END
> <minimizedAffinity>
-6.90171

$$$$
data/CDK2/cocry_dataset/1ckp_PVB_LIG.pdb


 19 21  0  0  0  0  0  0  0  0999 V2000
  -15.6960  203.1840  116.2219 N   0  0  0  0  0  0  0  0  0  0  0  0
  -15.7540  203.5010  117.5280 C   0  0  0  0  0  0  0  0  0  0  0  0
  -15.2124  204.5640  118.1421 N   0  0  0  0  0  0  0  0  0  0  0  0
  -14.5710  205.3513  117.2652 C   0  0  0  0  0  0  0  0  0  0  0  0
  -13.8869  206.5020  117.5286 N   0  0  0  0  0  0  0  0  0  0  0  0
  -13.7029  207.1056  118.8216 C   0  0  0  0  0  0  0  0  0  0  0  0
  -13.3870  206.9717  116.3441 C   0  0  0  0  0  0  0  0  0  0  0  0
  -13.7082  206.1919  115.3309 N   0  0  0  0  0  0  0  0  0  0  0  0
  -14.4426  205.1649  115.8959 C   0  0  0  0  0  0  0  0  0  0  0  0
  -15.0286  204.0054  115.3603 C   0  0  0  0  0  0  0  0  0  0  0  0
  -14.9632  203.6871  113.9940 N   0  0  0  0  0  0  0  0  0  0  0  0
  -14.9972  202.6921  113.8010 H   0  0  0  0  0  0  0  0  0  0  0  0
  -15.2271  204.5454  112.9125 C   0  0  0  0  0  0  0  0  0  0  0  0
  -14.2217  204.8215  111.9775 C   0  0  0  0  0  0  0  0  0  0  0  0
  -14.4305  205.7572  110.9569 C   0  0  0  0  0  0  0  0  0  0  0  0
  -15.6562  206.4152  110.8490 C   0  0  0  0  0  0  0  0  0  0  0  0
  -16.6680  206.1308  111.7596 C   0  0  0  0  0  0  0  0  0  0  0  0
  -18.1886  206.9258  111.6331 Cl  0  0  0  0  0  0  0  0  0  0  0  0
  -16.4542  205.2103  112.7835 C   0  0  0  0  0  0  0  0  0  0  0  0
  1  2  1  0  0  0
  1 10  2  0  0  0
  2  3  2  0  0  0
  3  4  1  0  0  0
  4  5  1  0  0  0
  4  9  2  0  0  0
  5  6  1  0  0  0
  5  7  1  0  0  0
  7  8  2  0  0  0
  8  9  1  0  0  0
  9 10  1  0  0  0
 10 11  1  0  0  0
 11 13  1  0  0  0
 11 12  1  0  0  0
 13 14  1  0  0  0
 13 19  2  0  0  0
 14 15  2  0  0  0
 15 16  1  0  0  0
 16 17  2  0  0  0
 17 18  1  0  0  0
 17 19  1  0  0  0
M  END
> <minimizedAffinity>
-6.78495

$$$$
