# created with PyMOL 2.5.0
@<TRIPOS>MOLECULE
data/CDK2/cocry_dataset/1di8_DTQ_LIG.pdb
37 39 1                 
SMALL
USER_CHARGES
@<TRIPOS>ATOM
1	 H12	-7.246	208.573	112.609	 H	1	UNK0	0.000	
2	 H14	-10.933	203.808	116.373	 H	1	UNK0	0.000	
3	 H02	-12.446	204.917	113.749	 H	1	UNK0	0.000	
4	 H11	-7.792	207.218	111.592	 H	1	UNK0	0.000	
5	 H01	-12.580	207.393	108.425	 H	1	UNK0	0.000	
6	 H15	-11.431	205.515	116.454	 H	1	UNK0	0.000	
7	 H04	-14.104	204.169	112.161	 H	1	UNK0	0.000	
8	 H03	-9.284	207.927	111.477	 H	1	UNK0	0.000	
9	 H10	-6.479	206.975	112.769	 H	1	UNK0	0.000	
10	 H05	-16.062	204.408	113.721	 H	1	UNK0	0.000	
11	 H08	-15.513	206.927	110.271	 H	1	UNK0	0.000	
12	 H07	-17.856	207.724	110.488	 H	1	UNK0	0.000	
13	 H06	-19.302	206.860	112.318	 H	1	UNK0	0.000	
14	 H09	-18.709	205.815	114.761	 H	1	UNK0	0.000	
15	 H13	-12.117	204.445	115.208	 H	1	UNK0	0.000	
16	   N	-13.419	206.286	109.961	N.2	1	UNK0	0.000	
17	   C	-12.449	207.041	109.448	C.2	1	UNK0	0.000	
18	   N	-11.333	207.403	110.080	N.2	1	UNK0	0.000	
19	   C	-11.156	206.930	111.315	C.2	1	UNK0	0.000	
20	   C	-12.075	206.101	111.964	C.2	1	UNK0	0.000	
21	   C	-13.245	205.839	111.222	C.2	1	UNK0	0.000	
22	   C	-11.734	205.567	113.239	C.2	1	UNK0	0.000	
23	   C	-10.503	205.855	113.860	C.2	1	UNK0	0.000	
24	   C	-9.617	206.726	113.223	C.2	1	UNK0	0.000	
25	   C	-9.976	207.241	111.967	C.2	1	UNK0	0.000	
26	   N	-14.307	205.098	111.819	N.pl3	1	UNK0	0.000	
27	   C	-15.630	205.586	111.961	C.2	1	UNK0	0.000	
28	   C	-16.451	205.127	113.000	C.2	1	UNK0	0.000	
29	   C	-17.761	205.583	113.116	C.2	1	UNK0	0.000	
30	   C	-18.274	206.511	112.220	C.2	1	UNK0	0.000	
31	   C	-17.463	206.992	111.194	C.2	1	UNK0	0.000	
32	   C	-16.145	206.538	111.069	C.2	1	UNK0	0.000	
33	   O	-18.583	205.125	114.105	O.3	1	UNK0	0.000	
34	   O	-8.362	207.141	113.559	O.3	1	UNK0	0.000	
35	   C	-7.417	207.497	112.576	C.3	1	UNK0	0.000	
36	   O	-10.165	205.031	114.901	O.3	1	UNK0	0.000	
37	   C	-11.223	204.679	115.786	C.3	1	UNK0	0.000	
@<TRIPOS>BOND
1 16 17 1
2 16 21 2
3 5 17 1
4 17 18 2
5 18 19 1
6 19 20 1
7 19 25 2
8 20 21 1
9 20 22 2
10 21 26 1
11 3 22 1
12 22 23 1
13 23 24 2
14 23 36 1
15 24 25 1
16 24 34 1
17 8 25 1
18 7 26 1
19 26 27 1
20 27 28 1
21 27 32 2
22 10 28 1
23 28 29 2
24 29 30 1
25 29 33 1
26 13 30 1
27 30 31 2
28 12 31 1
29 31 32 1
30 11 32 1
31 14 33 1
32 34 35 1
33 1 35 1
34 4 35 1
35 9 35 1
36 36 37 1
37 2 37 1
38 6 37 1
39 15 37 1
@<TRIPOS>SUBSTRUCTURE
1	UNK0	1	GROUP	1 ****	UNK
