data/CDK2/cocry_dataset/1di8_DTQ_LIG.pdb
 OpenBabel03092321123D

 24 26  0  0  0  0  0  0  0  0999 V2000
  -13.4194  206.2863  109.9613 N   0  0  0  0  0  0  0  0  0  0  0  0
  -12.4494  207.0413  109.4480 C   0  0  0  0  0  0  0  0  0  0  0  0
  -11.3327  207.4033  110.0797 N   0  0  0  0  0  0  0  0  0  0  0  0
  -11.1564  206.9296  111.3150 C   0  0  0  0  0  0  0  0  0  0  0  0
  -12.0752  206.1009  111.9641 C   0  0  0  0  0  0  0  0  0  0  0  0
  -13.2451  205.8393  111.2218 C   0  0  0  0  0  0  0  0  0  0  0  0
  -11.7342  205.5667  113.2393 C   0  0  0  0  0  0  0  0  0  0  0  0
  -10.5031  205.8547  113.8600 C   0  0  0  0  0  0  0  0  0  0  0  0
   -9.6170  206.7257  113.2229 C   0  0  0  0  0  0  0  0  0  0  0  0
   -9.9758  207.2412  111.9669 C   0  0  0  0  0  0  0  0  0  0  0  0
  -14.3068  205.0978  111.8188 N   0  0  0  0  0  0  0  0  0  0  0  0
  -13.9628  204.6898  112.6821 H   0  0  0  0  0  0  0  0  0  0  0  0
  -15.6302  205.5863  111.9612 C   0  0  0  0  0  0  0  0  0  0  0  0
  -16.4515  205.1268  113.0003 C   0  0  0  0  0  0  0  0  0  0  0  0
  -17.7615  205.5828  113.1164 C   0  0  0  0  0  0  0  0  0  0  0  0
  -18.2738  206.5106  112.2202 C   0  0  0  0  0  0  0  0  0  0  0  0
  -17.4632  206.9924  111.1939 C   0  0  0  0  0  0  0  0  0  0  0  0
  -16.1453  206.5378  111.0694 C   0  0  0  0  0  0  0  0  0  0  0  0
  -18.5826  205.1254  114.1054 O   0  0  0  0  0  0  0  0  0  0  0  0
  -18.1141  204.4182  114.5797 H   0  0  0  0  0  0  0  0  0  0  0  0
   -8.3623  207.1410  113.5589 O   0  0  0  0  0  0  0  0  0  0  0  0
   -7.4166  207.4973  112.5762 C   0  0  0  0  0  0  0  0  0  0  0  0
  -10.1650  205.0306  114.9008 O   0  0  0  0  0  0  0  0  0  0  0  0
  -11.2232  204.6794  115.7862 C   0  0  0  0  0  0  0  0  0  0  0  0
  1  2  1  0  0  0  0
  1  6  2  0  0  0  0
  2  3  2  0  0  0  0
  3  4  1  0  0  0  0
  4  5  1  0  0  0  0
  4 10  2  0  0  0  0
  5  6  1  0  0  0  0
  5  7  2  0  0  0  0
  6 11  1  0  0  0  0
  7  8  1  0  0  0  0
  8  9  2  0  0  0  0
  8 23  1  0  0  0  0
  9 10  1  0  0  0  0
  9 21  1  0  0  0  0
 11 13  1  0  0  0  0
 11 12  1  0  0  0  0
 13 14  1  0  0  0  0
 13 18  2  0  0  0  0
 14 15  2  0  0  0  0
 15 16  1  0  0  0  0
 15 19  1  0  0  0  0
 16 17  2  0  0  0  0
 17 18  1  0  0  0  0
 19 20  1  0  0  0  0
 21 22  1  0  0  0  0
 23 24  1  0  0  0  0
M  END
>  <minimizedAffinity>
-8.68432

$$$$
