data/CDK2/cocry_dataset/1di8_DTQ_LIG.pdb


 24 26  0  0  0  0  0  0  0  0999 V2000
  -13.4194  206.2863  109.9613 N   0  0  0  0  0  0  0  0  0  0  0  0
  -12.4494  207.0413  109.4480 C   0  0  0  0  0  0  0  0  0  0  0  0
  -11.3327  207.4033  110.0797 N   0  0  0  0  0  0  0  0  0  0  0  0
  -11.1564  206.9296  111.3150 C   0  0  0  0  0  0  0  0  0  0  0  0
  -12.0752  206.1009  111.9641 C   0  0  0  0  0  0  0  0  0  0  0  0
  -13.2451  205.8393  111.2218 C   0  0  0  0  0  0  0  0  0  0  0  0
  -11.7342  205.5667  113.2393 C   0  0  0  0  0  0  0  0  0  0  0  0
  -10.5031  205.8547  113.8600 C   0  0  0  0  0  0  0  0  0  0  0  0
   -9.6170  206.7257  113.2229 C   0  0  0  0  0  0  0  0  0  0  0  0
   -9.9758  207.2412  111.9669 C   0  0  0  0  0  0  0  0  0  0  0  0
  -14.3068  205.0978  111.8188 N   0  0  0  0  0  0  0  0  0  0  0  0
  -13.9628  204.6898  112.6821 H   0  0  0  0  0  0  0  0  0  0  0  0
  -15.6302  205.5863  111.9612 C   0  0  0  0  0  0  0  0  0  0  0  0
  -16.4515  205.1268  113.0003 C   0  0  0  0  0  0  0  0  0  0  0  0
  -17.7615  205.5828  113.1164 C   0  0  0  0  0  0  0  0  0  0  0  0
  -18.2738  206.5106  112.2202 C   0  0  0  0  0  0  0  0  0  0  0  0
  -17.4632  206.9924  111.1939 C   0  0  0  0  0  0  0  0  0  0  0  0
  -16.1453  206.5378  111.0694 C   0  0  0  0  0  0  0  0  0  0  0  0
  -18.5826  205.1254  114.1054 O   0  0  0  0  0  0  0  0  0  0  0  0
  -18.1141  204.4182  114.5797 H   0  0  0  0  0  0  0  0  0  0  0  0
   -8.3623  207.1410  113.5589 O   0  0  0  0  0  0  0  0  0  0  0  0
   -7.4166  207.4973  112.5762 C   0  0  0  0  0  0  0  0  0  0  0  0
  -10.1650  205.0306  114.9008 O   0  0  0  0  0  0  0  0  0  0  0  0
  -11.2232  204.6794  115.7862 C   0  0  0  0  0  0  0  0  0  0  0  0
  1  2  1  0  0  0
  1  6  2  0  0  0
  2  3  2  0  0  0
  3  4  1  0  0  0
  4  5  1  0  0  0
  4 10  2  0  0  0
  5  6  1  0  0  0
  5  7  2  0  0  0
  6 11  1  0  0  0
 11 13  1  0  0  0
 11 12  1  0  0  0
 13 14  1  0  0  0
 13 18  2  0  0  0
 14 15  2  0  0  0
 15 16  1  0  0  0
 15 19  1  0  0  0
 16 17  2  0  0  0
 17 18  1  0  0  0
 19 20  1  0  0  0
  7  8  1  0  0  0
  8  9  2  0  0  0
  8 23  1  0  0  0
  9 10  1  0  0  0
  9 21  1  0  0  0
 21 22  1  0  0  0
 23 24  1  0  0  0
M  END
> <minimizedAffinity>
-8.68432

$$$$
data/CDK2/cocry_dataset/1di8_DTQ_LIG.pdb


 24 26  0  0  0  0  0  0  0  0999 V2000
  -12.8307  204.6152  114.9831 N   0  0  0  0  0  0  0  0  0  0  0  0
  -11.8066  205.0370  115.7230 C   0  0  0  0  0  0  0  0  0  0  0  0
  -10.7314  205.6781  115.2645 N   0  0  0  0  0  0  0  0  0  0  0  0
  -10.7051  205.9575  113.9596 C   0  0  0  0  0  0  0  0  0  0  0  0
  -11.7251  205.6046  113.0724 C   0  0  0  0  0  0  0  0  0  0  0  0
  -12.7786  204.8752  113.6607 C   0  0  0  0  0  0  0  0  0  0  0  0
  -11.6422  206.0487  111.7219 C   0  0  0  0  0  0  0  0  0  0  0  0
  -10.5622  206.8264  111.2608 C   0  0  0  0  0  0  0  0  0  0  0  0
   -9.5248  207.1272  112.1458 C   0  0  0  0  0  0  0  0  0  0  0  0
   -9.6280  206.6771  113.4719 C   0  0  0  0  0  0  0  0  0  0  0  0
  -13.8246  204.3618  112.8388 N   0  0  0  0  0  0  0  0  0  0  0  0
  -14.0109  203.4052  113.1226 H   0  0  0  0  0  0  0  0  0  0  0  0
  -15.0215  205.0650  112.5504 C   0  0  0  0  0  0  0  0  0  0  0  0
  -16.2199  204.7262  113.1943 C   0  0  0  0  0  0  0  0  0  0  0  0
  -17.3998  205.3959  112.8832 C   0  0  0  0  0  0  0  0  0  0  0  0
  -17.4110  206.4197  111.9461 C   0  0  0  0  0  0  0  0  0  0  0  0
  -16.2237  206.7818  111.3123 C   0  0  0  0  0  0  0  0  0  0  0  0
  -15.0332  206.1124  111.6184 C   0  0  0  0  0  0  0  0  0  0  0  0
  -18.5798  205.0605  113.4806 O   0  0  0  0  0  0  0  0  0  0  0  0
  -18.4245  204.2722  114.0273 H   0  0  0  0  0  0  0  0  0  0  0  0
   -8.4000  207.8828  111.9934 O   0  0  0  0  0  0  0  0  0  0  0  0
   -7.1741  207.5047  112.5775 C   0  0  0  0  0  0  0  0  0  0  0  0
  -10.7644  207.4571  110.0616 O   0  0  0  0  0  0  0  0  0  0  0  0
  -12.0580  207.3028  109.4873 C   0  0  0  0  0  0  0  0  0  0  0  0
  1  2  1  0  0  0
  1  6  2  0  0  0
  2  3  2  0  0  0
  3  4  1  0  0  0
  4  5  1  0  0  0
  4 10  2  0  0  0
  5  6  1  0  0  0
  5  7  2  0  0  0
  6 11  1  0  0  0
 11 13  1  0  0  0
 11 12  1  0  0  0
 13 14  1  0  0  0
 13 18  2  0  0  0
 14 15  2  0  0  0
 15 16  1  0  0  0
 15 19  1  0  0  0
 16 17  2  0  0  0
 17 18  1  0  0  0
 19 20  1  0  0  0
  7  8  1  0  0  0
  8  9  2  0  0  0
  8 23  1  0  0  0
  9 10  1  0  0  0
  9 21  1  0  0  0
 21 22  1  0  0  0
 23 24  1  0  0  0
M  END
> <minimizedAffinity>
-8.42704

$$$$
data/CDK2/cocry_dataset/1di8_DTQ_LIG.pdb


 24 26  0  0  0  0  0  0  0  0999 V2000
  -11.5711  206.8488  110.3945 N   0  0  0  0  0  0  0  0  0  0  0  0
  -12.6350  206.9863  109.6049 C   0  0  0  0  0  0  0  0  0  0  0  0
  -13.8559  206.5161  109.8607 N   0  0  0  0  0  0  0  0  0  0  0  0
  -14.0317  205.8944  111.0286 C   0  0  0  0  0  0  0  0  0  0  0  0
  -13.0132  205.7082  111.9667 C   0  0  0  0  0  0  0  0  0  0  0  0
  -11.7531  206.1911  111.5579 C   0  0  0  0  0  0  0  0  0  0  0  0
  -13.3390  205.1271  113.2253 C   0  0  0  0  0  0  0  0  0  0  0  0
  -14.6535  204.7343  113.5439 C   0  0  0  0  0  0  0  0  0  0  0  0
  -15.6508  204.8786  112.5772 C   0  0  0  0  0  0  0  0  0  0  0  0
  -15.3052  205.4526  111.3431 C   0  0  0  0  0  0  0  0  0  0  0  0
  -10.6106  205.9620  112.3798 N   0  0  0  0  0  0  0  0  0  0  0  0
   -9.9757  205.3499  111.8774 H   0  0  0  0  0  0  0  0  0  0  0  0
   -9.9143  206.9864  113.0697 C   0  0  0  0  0  0  0  0  0  0  0  0
  -10.2920  207.3547  114.3686 C   0  0  0  0  0  0  0  0  0  0  0  0
   -9.6282  208.3844  115.0295 C   0  0  0  0  0  0  0  0  0  0  0  0
   -8.5724  209.0530  114.4256 C   0  0  0  0  0  0  0  0  0  0  0  0
   -8.1718  208.6847  113.1425 C   0  0  0  0  0  0  0  0  0  0  0  0
   -8.8351  207.6514  112.4706 C   0  0  0  0  0  0  0  0  0  0  0  0
  -10.0006  208.7735  116.2831 O   0  0  0  0  0  0  0  0  0  0  0  0
  -10.8055  208.2836  116.5213 H   0  0  0  0  0  0  0  0  0  0  0  0
  -16.9911  204.6314  112.6202 O   0  0  0  0  0  0  0  0  0  0  0  0
  -17.9314  205.6793  112.6902 C   0  0  0  0  0  0  0  0  0  0  0  0
  -14.8913  204.5083  114.8739 O   0  0  0  0  0  0  0  0  0  0  0  0
  -15.3134  205.6374  115.6316 C   0  0  0  0  0  0  0  0  0  0  0  0
  1  2  1  0  0  0
  1  6  2  0  0  0
  2  3  2  0  0  0
  3  4  1  0  0  0
  4  5  1  0  0  0
  4 10  2  0  0  0
  5  6  1  0  0  0
  5  7  2  0  0  0
  6 11  1  0  0  0
 11 13  1  0  0  0
 11 12  1  0  0  0
 13 14  1  0  0  0
 13 18  2  0  0  0
 14 15  2  0  0  0
 15 16  1  0  0  0
 15 19  1  0  0  0
 16 17  2  0  0  0
 17 18  1  0  0  0
 19 20  1  0  0  0
  7  8  1  0  0  0
  8  9  2  0  0  0
  8 23  1  0  0  0
  9 10  1  0  0  0
  9 21  1  0  0  0
 21 22  1  0  0  0
 23 24  1  0  0  0
M  END
> <minimizedAffinity>
-8.30371

$$$$
