# created with PyMOL 2.5.0
@<TRIPOS>MOLECULE
data/CDK2/cocry_dataset/1dm2_HMD_LIG.pdb
29 31 1                 
SMALL
USER_CHARGES
@<TRIPOS>ATOM
1	  Br	-14.022	205.262	111.358	Br	1	UNK0	0.000	
2	   C	-14.767	205.623	113.109	C.3	1	UNK0	0.000	
3	   N	-14.748	207.041	113.521	N.2	1	UNK0	0.000	
4	   C	-14.014	207.006	114.606	C.2	1	UNK0	0.000	
5	   C	-13.204	205.801	114.812	C.2	1	UNK0	0.000	
6	   C	-13.903	204.908	114.102	C.2	1	UNK0	0.000	
7	   C	-11.769	206.060	114.802	C.2	1	UNK0	0.000	
8	   C	-11.075	206.457	113.711	C.2	1	UNK0	0.000	
9	   N	-11.498	206.807	112.453	N.pl3	1	UNK0	0.000	
10	   C	-10.426	207.276	111.757	C.2	1	UNK0	0.000	
11	   N	-9.301	207.214	112.384	N.2	1	UNK0	0.000	
12	   C	-9.578	206.695	113.647	C.2	1	UNK0	0.000	
13	   O	-8.778	206.444	114.532	O.2	1	UNK0	0.000	
14	   N	-10.648	207.725	110.512	N.pl3	1	UNK0	0.000	
15	   C	-11.271	206.105	116.217	C.3	1	UNK0	0.000	
16	   C	-12.289	206.766	117.184	C.3	1	UNK0	0.000	
17	   N	-12.974	207.973	116.695	N.pl3	1	UNK0	0.000	
18	   C	-13.887	208.107	115.654	C.2	1	UNK0	0.000	
19	   O	-14.636	209.075	115.605	O.2	1	UNK0	0.000	
20	 H01	-15.809	205.305	113.068	 H	1	UNK0	0.000	
21	 H02	-13.851	203.826	114.227	 H	1	UNK0	0.000	
22	 H03	-12.443	206.730	112.104	 H	1	UNK0	0.000	
23	 H04	-11.583	207.713	110.130	 H	1	UNK0	0.000	
24	 H05	-9.880	208.076	109.958	 H	1	UNK0	0.000	
25	 H06	-10.364	206.709	116.229	 H	1	UNK0	0.000	
26	 H07	-11.078	205.087	116.553	 H	1	UNK0	0.000	
27	 H08	-11.700	207.096	118.040	 H	1	UNK0	0.000	
28	 H09	-13.052	206.024	117.419	 H	1	UNK0	0.000	
29	 H10	-12.749	208.826	117.185	 H	1	UNK0	0.000	
@<TRIPOS>BOND
1 2 3 1
2 2 6 1
3 1 2 1
4 3 4 2
5 4 5 1
6 4 18 1
7 5 6 2
8 5 7 1
9 7 8 2
10 7 15 1
11 8 9 1
12 8 12 1
13 9 10 1
14 10 11 2
15 10 14 1
16 11 12 1
17 12 13 2
18 15 16 1
19 16 17 1
20 17 18 1
21 18 19 2
22 2 20 1
23 6 21 1
24 9 22 1
25 14 23 1
26 14 24 1
27 15 25 1
28 15 26 1
29 16 27 1
30 16 28 1
31 17 29 1
@<TRIPOS>SUBSTRUCTURE
1	UNK0	1	GROUP	1 ****	UNK
