# created with PyMOL 2.5.0
@<TRIPOS>MOLECULE
data/CDK2/cocry_dataset/1dm2_HMD_LIG.pdb
29 31 1                 
SMALL
USER_CHARGES
@<TRIPOS>ATOM
1	 H06	-10.364	206.709	116.229	 H	1	UNK0	0.000	
2	 H04	-11.583	207.713	110.130	 H	1	UNK0	0.000	
3	 H05	-9.880	208.076	109.958	 H	1	UNK0	0.000	
4	 H01	-15.809	205.305	113.068	 H	1	UNK0	0.000	
5	 H09	-13.052	206.024	117.419	 H	1	UNK0	0.000	
6	 H10	-12.749	208.826	117.185	 H	1	UNK0	0.000	
7	 H07	-11.078	205.087	116.553	 H	1	UNK0	0.000	
8	 H02	-13.851	203.826	114.227	 H	1	UNK0	0.000	
9	 H08	-11.700	207.096	118.040	 H	1	UNK0	0.000	
10	 H03	-12.443	206.730	112.104	 H	1	UNK0	0.000	
11	  Br	-14.022	205.262	111.358	Br	1	UNK0	0.000	
12	   C	-14.767	205.623	113.109	C.3	1	UNK0	0.000	
13	   N	-14.748	207.041	113.521	N.2	1	UNK0	0.000	
14	   C	-14.014	207.006	114.606	C.2	1	UNK0	0.000	
15	   C	-13.204	205.801	114.812	C.2	1	UNK0	0.000	
16	   C	-13.903	204.908	114.102	C.2	1	UNK0	0.000	
17	   C	-11.769	206.060	114.802	C.2	1	UNK0	0.000	
18	   C	-11.075	206.457	113.711	C.2	1	UNK0	0.000	
19	   N	-11.498	206.807	112.453	N.pl3	1	UNK0	0.000	
20	   C	-10.426	207.276	111.757	C.2	1	UNK0	0.000	
21	   N	-9.301	207.214	112.384	N.2	1	UNK0	0.000	
22	   C	-9.578	206.695	113.647	C.2	1	UNK0	0.000	
23	   O	-8.778	206.444	114.532	O.2	1	UNK0	0.000	
24	   N	-10.648	207.725	110.512	N.pl3	1	UNK0	0.000	
25	   C	-11.271	206.105	116.217	C.3	1	UNK0	0.000	
26	   C	-12.289	206.766	117.184	C.3	1	UNK0	0.000	
27	   N	-12.974	207.973	116.695	N.pl3	1	UNK0	0.000	
28	   C	-13.887	208.107	115.654	C.2	1	UNK0	0.000	
29	   O	-14.636	209.075	115.605	O.2	1	UNK0	0.000	
@<TRIPOS>BOND
1 4 12 1
2 11 12 1
3 12 13 1
4 12 16 1
5 13 14 2
6 14 15 1
7 14 28 1
8 15 16 2
9 15 17 1
10 8 16 1
11 17 18 2
12 17 25 1
13 18 19 1
14 18 22 1
15 10 19 1
16 19 20 1
17 20 21 2
18 20 24 1
19 21 22 1
20 22 23 2
21 2 24 1
22 3 24 1
23 1 25 1
24 7 25 1
25 25 26 1
26 5 26 1
27 9 26 1
28 26 27 1
29 6 27 1
30 27 28 1
31 28 29 2
@<TRIPOS>SUBSTRUCTURE
1	UNK0	1	GROUP	1 ****	UNK
