data/CDK2/cocry_dataset/1dm2_HMD_LIG.pdb
 OpenBabel03092321123D

 23 25  0  0  0  0  0  0  0  0999 V2000
  -11.2587  205.5059  117.5629 Br  0  0  0  0  0  0  0  0  0  0  0  0
  -10.0772  205.5431  116.0289 C   0  0  2  0  0  0  0  0  0  0  0  0
   -9.8249  206.8838  115.4611 N   0  0  0  0  0  0  0  0  0  0  0  0
  -10.2757  206.7576  114.2375 C   0  0  0  0  0  0  0  0  0  0  0  0
  -11.1524  205.6118  113.9757 C   0  0  0  0  0  0  0  0  0  0  0  0
  -10.7579  204.7720  114.9398 C   0  0  0  0  0  0  0  0  0  0  0  0
  -12.5058  205.9946  113.5907 C   0  0  0  0  0  0  0  0  0  0  0  0
  -13.3873  206.6044  114.4153 C   0  0  0  0  0  0  0  0  0  0  0  0
  -13.2395  207.0930  115.6884 N   0  0  0  0  0  0  0  0  0  0  0  0
  -14.3824  207.7504  116.0302 C   0  0  0  0  0  0  0  0  0  0  0  0
  -15.3226  207.6978  115.1495 N   0  0  0  0  0  0  0  0  0  0  0  0
  -14.8162  206.9796  114.0676 C   0  0  0  0  0  0  0  0  0  0  0  0
  -15.4043  206.6755  113.0445 O   0  0  0  0  0  0  0  0  0  0  0  0
  -14.4131  208.3527  117.2281 N   0  0  0  0  0  0  0  0  0  0  0  0
  -12.6399  205.8797  112.1002 C   0  0  0  0  0  0  0  0  0  0  0  0
  -11.3470  206.3016  111.3528 C   0  0  0  0  0  0  0  0  0  0  0  0
  -10.6588  207.5011  111.8543 N   0  0  0  0  0  0  0  0  0  0  0  0
  -10.0125  207.7026  113.0705 C   0  0  0  0  0  0  0  0  0  0  0  0
   -9.1860  208.5979  113.1930 O   0  0  0  0  0  0  0  0  0  0  0  0
  -12.3291  207.3758  116.0337 H   0  0  0  0  0  0  0  0  0  0  0  0
  -13.9120  207.8805  117.9753 H   0  0  0  0  0  0  0  0  0  0  0  0
  -15.3619  208.5887  117.5081 H   0  0  0  0  0  0  0  0  0  0  0  0
  -10.2839  208.1229  111.1458 H   0  0  0  0  0  0  0  0  0  0  0  0
  2  3  1  0  0  0  0
  2  6  1  0  0  0  0
  2  1  1  1  0  0  0
  3  4  2  0  0  0  0
  4  5  1  0  0  0  0
  4 18  1  0  0  0  0
  5  6  2  0  0  0  0
  5  7  1  0  0  0  0
  7  8  2  0  0  0  0
  7 15  1  0  0  0  0
  8  9  1  0  0  0  0
  8 12  1  0  0  0  0
  9 10  1  0  0  0  0
  9 20  1  0  0  0  0
 10 11  2  0  0  0  0
 10 14  1  0  0  0  0
 11 12  1  0  0  0  0
 12 13  2  0  0  0  0
 14 21  1  0  0  0  0
 14 22  1  0  0  0  0
 15 16  1  0  0  0  0
 16 17  1  0  0  0  0
 17 18  1  0  0  0  0
 17 23  1  0  0  0  0
 18 19  2  0  0  0  0
M  END
>  <minimizedAffinity>
-4.59813

$$$$
