# created with PyMOL 2.5.0
@<TRIPOS>MOLECULE
data/CDK2/cocry_dataset/1dm2_HMD_LIG.pdb
29 31 1                 
SMALL
USER_CHARGES
@<TRIPOS>ATOM
1	 H06	-12.097	205.835	117.526	 H	1	UNK0	0.000	
2	 H04	-12.376	205.863	111.232	 H	1	UNK0	0.000	
3	 H05	-10.647	205.600	111.259	 H	1	UNK0	0.000	
4	 H01	-17.407	205.662	113.867	 H	1	UNK0	0.000	
5	 H09	-14.943	206.342	118.396	 H	1	UNK0	0.000	
6	 H10	-13.653	208.771	117.735	 H	1	UNK0	0.000	
7	 H07	-13.361	204.646	118.011	 H	1	UNK0	0.000	
8	 H02	-16.198	203.904	115.544	 H	1	UNK0	0.000	
9	 H08	-13.356	207.016	119.021	 H	1	UNK0	0.000	
10	 H03	-13.687	205.661	113.192	 H	1	UNK0	0.000	
11	  Br	-15.615	204.672	112.479	Br	1	UNK0	0.000	
12	   C	-16.327	205.620	114.009	C.3	1	UNK0	0.000	
13	   N	-15.843	207.007	114.171	N.2	1	UNK0	0.000	
14	   C	-15.261	206.964	115.344	C.2	1	UNK0	0.000	
15	   C	-14.947	205.633	115.873	C.2	1	UNK0	0.000	
16	   C	-15.855	204.890	115.229	C.2	1	UNK0	0.000	
17	   C	-13.518	205.396	116.035	C.2	1	UNK0	0.000	
18	   C	-12.641	205.302	115.009	C.2	1	UNK0	0.000	
19	   N	-12.808	205.495	113.662	N.pl3	1	UNK0	0.000	
20	   C	-11.586	205.426	113.064	C.2	1	UNK0	0.000	
21	   N	-10.611	205.132	113.856	N.2	1	UNK0	0.000	
22	   C	-11.156	205.014	115.133	C.2	1	UNK0	0.000	
23	   O	-10.572	204.708	116.158	O.2	1	UNK0	0.000	
24	   N	-11.532	205.648	111.743	N.pl3	1	UNK0	0.000	
25	   C	-13.154	205.576	117.480	C.3	1	UNK0	0.000	
26	   C	-13.951	206.724	118.155	C.3	1	UNK0	0.000	
27	   N	-14.123	207.955	117.369	N.pl3	1	UNK0	0.000	
28	   C	-14.842	208.158	116.195	C.2	1	UNK0	0.000	
29	   O	-15.194	209.284	115.869	O.2	1	UNK0	0.000	
@<TRIPOS>BOND
1 4 12 1
2 11 12 1
3 12 13 1
4 12 16 1
5 13 14 2
6 14 15 1
7 14 28 1
8 15 16 2
9 15 17 1
10 8 16 1
11 17 18 2
12 17 25 1
13 18 19 1
14 18 22 1
15 10 19 1
16 19 20 1
17 20 21 2
18 20 24 1
19 21 22 1
20 22 23 2
21 2 24 1
22 3 24 1
23 1 25 1
24 7 25 1
25 25 26 1
26 5 26 1
27 9 26 1
28 26 27 1
29 6 27 1
30 27 28 1
31 28 29 2
@<TRIPOS>SUBSTRUCTURE
1	UNK0	1	GROUP	1 ****	UNK
