# created with PyMOL 2.5.0
@<TRIPOS>MOLECULE
data/CDK2/cocry_dataset/1dm2_HMD_LIG.pdb
29 31 1                 
SMALL
USER_CHARGES
@<TRIPOS>ATOM
1	 H06	-13.438	206.553	111.787	 H	1	UNK0	0.000	
2	 H04	-13.606	208.313	117.834	 H	1	UNK0	0.000	
3	 H05	-15.243	208.846	117.524	 H	1	UNK0	0.000	
4	 H01	-9.122	205.144	116.370	 H	1	UNK0	0.000	
5	 H09	-10.645	205.469	111.408	 H	1	UNK0	0.000	
6	 H10	-10.655	208.292	111.226	 H	1	UNK0	0.000	
7	 H07	-12.868	204.844	111.848	 H	1	UNK0	0.000	
8	 H02	-10.909	203.693	114.934	 H	1	UNK0	0.000	
9	 H08	-11.669	206.556	110.343	 H	1	UNK0	0.000	
10	 H03	-12.423	206.984	116.273	 H	1	UNK0	0.000	
11	  Br	-11.259	205.506	117.563	Br	1	UNK0	0.000	
12	   C	-10.077	205.543	116.029	C.3	1	UNK0	0.000	
13	   N	-9.825	206.884	115.461	N.2	1	UNK0	0.000	
14	   C	-10.276	206.758	114.238	C.2	1	UNK0	0.000	
15	   C	-11.152	205.612	113.976	C.2	1	UNK0	0.000	
16	   C	-10.758	204.772	114.940	C.2	1	UNK0	0.000	
17	   C	-12.506	205.995	113.591	C.2	1	UNK0	0.000	
18	   C	-13.387	206.604	114.415	C.2	1	UNK0	0.000	
19	   N	-13.240	207.093	115.688	N.pl3	1	UNK0	0.000	
20	   C	-14.382	207.750	116.030	C.2	1	UNK0	0.000	
21	   N	-15.323	207.698	115.149	N.2	1	UNK0	0.000	
22	   C	-14.816	206.980	114.068	C.2	1	UNK0	0.000	
23	   O	-15.404	206.676	113.045	O.2	1	UNK0	0.000	
24	   N	-14.413	208.353	117.228	N.pl3	1	UNK0	0.000	
25	   C	-12.640	205.880	112.100	C.3	1	UNK0	0.000	
26	   C	-11.347	206.302	111.353	C.3	1	UNK0	0.000	
27	   N	-10.659	207.501	111.854	N.pl3	1	UNK0	0.000	
28	   C	-10.012	207.703	113.071	C.2	1	UNK0	0.000	
29	   O	-9.186	208.598	113.193	O.2	1	UNK0	0.000	
@<TRIPOS>BOND
1 4 12 1
2 11 12 1
3 12 13 1
4 12 16 1
5 13 14 2
6 14 15 1
7 14 28 1
8 15 16 2
9 15 17 1
10 8 16 1
11 17 18 2
12 17 25 1
13 18 19 1
14 18 22 1
15 10 19 1
16 19 20 1
17 20 21 2
18 20 24 1
19 21 22 1
20 22 23 2
21 2 24 1
22 3 24 1
23 1 25 1
24 7 25 1
25 25 26 1
26 5 26 1
27 9 26 1
28 26 27 1
29 6 27 1
30 27 28 1
31 28 29 2
@<TRIPOS>SUBSTRUCTURE
1	UNK0	1	GROUP	1 ****	UNK
