# created with PyMOL 2.5.0
@<TRIPOS>MOLECULE
data/CDK2/cocry_dataset/1e1v_CMG_LIG.pdb
35 37 1                 
SMALL
USER_CHARGES
@<TRIPOS>ATOM
1	   N	-15.019	206.007	116.545	N.2	1	UNK0	0.000	
2	   C	-15.714	205.206	115.830	C.2	1	UNK0	0.000	
3	   C	-15.960	205.493	114.424	C.2	1	UNK0	0.000	
4	   N	-16.626	204.888	113.494	N.2	1	UNK0	0.000	
5	   C	-16.474	205.731	112.393	C.2	1	UNK0	0.000	
6	   N	-15.766	206.811	112.568	N.2	1	UNK0	0.000	
7	   C	-15.401	206.713	113.875	C.2	1	UNK0	0.000	
8	   N	-14.712	207.538	114.557	N.2	1	UNK0	0.000	
9	   C	-14.440	207.202	115.947	C.3	1	UNK0	0.000	
10	   N	-14.863	208.331	116.725	N.3	1	UNK0	0.000	
11	   O	-16.297	204.076	116.248	O.3	1	UNK0	0.000	
12	   C	-15.702	203.413	117.378	C.3	1	UNK0	0.000	
13	   C	-16.612	202.245	117.773	C.3	1	UNK0	0.000	
14	   C	-17.359	202.529	119.081	C.3	1	UNK0	0.000	
15	   C	-18.308	201.381	119.427	C.3	1	UNK0	0.000	
16	   C	-17.583	200.038	119.487	C.3	1	UNK0	0.000	
17	   C	-16.770	199.767	118.224	C.3	1	UNK0	0.000	
18	   C	-15.832	200.925	117.893	C.3	1	UNK0	0.000	
19	 H01	-16.928	205.498	111.430	 H	1	UNK0	0.000	
20	 H02	-13.376	206.965	115.950	 H	1	UNK0	0.000	
21	 H03	-14.227	208.465	117.499	 H	1	UNK0	0.000	
22	 H04	-14.867	209.158	116.145	 H	1	UNK0	0.000	
23	 H05	-15.593	204.108	118.211	 H	1	UNK0	0.000	
24	 H06	-14.714	203.040	117.110	 H	1	UNK0	0.000	
25	 H07	-17.342	202.139	116.971	 H	1	UNK0	0.000	
26	 H08	-17.945	203.440	118.957	 H	1	UNK0	0.000	
27	 H09	-16.636	202.650	119.888	 H	1	UNK0	0.000	
28	 H10	-19.063	201.321	118.643	 H	1	UNK0	0.000	
29	 H11	-18.764	201.579	120.397	 H	1	UNK0	0.000	
30	 H12	-18.335	199.255	119.576	 H	1	UNK0	0.000	
31	 H13	-16.910	200.040	120.345	 H	1	UNK0	0.000	
32	 H14	-17.466	199.648	117.393	 H	1	UNK0	0.000	
33	 H15	-16.179	198.864	118.372	 H	1	UNK0	0.000	
34	 H16	-15.103	201.023	118.698	 H	1	UNK0	0.000	
35	 H17	-15.329	200.719	116.948	 H	1	UNK0	0.000	
@<TRIPOS>BOND
1 1 2 2
2 1 9 1
3 2 3 1
4 2 11 1
5 3 4 2
6 3 7 1
7 4 5 1
8 5 6 2
9 6 7 1
10 7 8 2
11 8 9 1
12 9 10 1
13 11 12 1
14 12 13 1
15 13 14 1
16 13 18 1
17 14 15 1
18 15 16 1
19 16 17 1
20 17 18 1
21 5 19 1
22 9 20 1
23 10 21 1
24 10 22 1
25 12 23 1
26 12 24 1
27 13 25 1
28 14 26 1
29 14 27 1
30 15 28 1
31 15 29 1
32 16 30 1
33 16 31 1
34 17 32 1
35 17 33 1
36 18 34 1
37 18 35 1
@<TRIPOS>SUBSTRUCTURE
1	UNK0	1	GROUP	1 ****	UNK
