data/CDK2/cocry_dataset/1e1v_CMG_LIG.pdb
 OpenBabel03092321123D

 20 22  0  0  0  0  0  0  0  0999 V2000
  -14.6401  206.5959  118.4412 N   0  0  0  0  0  0  0  0  0  0  0  0
  -14.3159  206.7801  117.2188 C   0  0  0  0  0  0  0  0  0  0  0  0
  -13.0053  207.3117  116.8734 C   0  0  0  0  0  0  0  0  0  0  0  0
  -12.4325  207.6113  115.7519 N   0  0  0  0  0  0  0  0  0  0  0  0
  -11.1904  208.1063  116.1510 C   0  0  0  0  0  0  0  0  0  0  0  0
  -10.9488  208.1358  117.4307 N   0  0  0  0  0  0  0  0  0  0  0  0
  -12.0966  207.6288  117.9568 C   0  0  0  0  0  0  0  0  0  0  0  0
  -12.3871  207.4675  119.1860 N   0  0  0  0  0  0  0  0  0  0  0  0
  -13.6849  206.8880  119.5018 C   0  0  1  0  0  0  0  0  0  0  0  0
  -14.3150  207.7889  120.4243 N   0  0  0  0  0  0  0  0  0  0  0  0
  -14.4888  208.6536  119.9237 H   0  0  0  0  0  0  0  0  0  0  0  0
  -13.6088  208.0200  121.1197 H   0  0  0  0  0  0  0  0  0  0  0  0
  -15.0908  206.5505  116.1514 O   0  0  0  0  0  0  0  0  0  0  0  0
  -15.4533  205.1831  115.8904 C   0  0  0  0  0  0  0  0  0  0  0  0
  -15.6305  205.0225  114.3764 C   0  0  0  0  0  0  0  0  0  0  0  0
  -14.3592  204.4787  113.7134 C   0  0  0  0  0  0  0  0  0  0  0  0
  -14.5748  204.2659  112.2149 C   0  0  0  0  0  0  0  0  0  0  0  0
  -15.0574  205.5376  111.5206 C   0  0  0  0  0  0  0  0  0  0  0  0
  -16.2791  206.1395  112.2087 C   0  0  0  0  0  0  0  0  0  0  0  0
  -16.0466  206.3414  113.7040 C   0  0  0  0  0  0  0  0  0  0  0  0
  1  2  2  0  0  0  0
  1  9  1  0  0  0  0
  2  3  1  0  0  0  0
  2 13  1  0  0  0  0
  3  4  2  0  0  0  0
  3  7  1  0  0  0  0
  4  5  1  0  0  0  0
  5  6  2  0  0  0  0
  6  7  1  0  0  0  0
  7  8  2  0  0  0  0
  8  9  1  0  0  0  0
  9 10  1  1  0  0  0
 10 11  1  0  0  0  0
 10 12  1  0  0  0  0
 13 14  1  0  0  0  0
 14 15  1  0  0  0  0
 15 16  1  0  0  0  0
 15 20  1  0  0  0  0
 16 17  1  0  0  0  0
 17 18  1  0  0  0  0
 18 19  1  0  0  0  0
 19 20  1  0  0  0  0
M  END
>  <minimizedAffinity>
-6.30430

$$$$
