data/CDK2/cocry_dataset/1e1v_CMG_LIG.pdb
 OpenBabel03092321123D

 20 22  0  0  0  0  0  0  0  0999 V2000
  -14.8903  204.3646  118.0432 N   0  0  0  0  0  0  0  0  0  0  0  0
  -15.7386  203.7511  117.3101 C   0  0  0  0  0  0  0  0  0  0  0  0
  -16.5891  202.7127  117.8741 C   0  0  0  0  0  0  0  0  0  0  0  0
  -17.4953  201.9346  117.3752 N   0  0  0  0  0  0  0  0  0  0  0  0
  -17.8826  201.1563  118.4665 C   0  0  0  0  0  0  0  0  0  0  0  0
  -17.2886  201.3918  119.6017 N   0  0  0  0  0  0  0  0  0  0  0  0
  -16.4323  202.3991  119.2801 C   0  0  0  0  0  0  0  0  0  0  0  0
  -15.5927  202.9819  120.0395 N   0  0  0  0  0  0  0  0  0  0  0  0
  -14.7896  204.0504  119.4623 C   0  0  1  0  0  0  0  0  0  0  0  0
  -13.4209  203.7228  119.7433 N   0  0  0  0  0  0  0  0  0  0  0  0
  -13.2057  202.8766  119.2274 H   0  0  0  0  0  0  0  0  0  0  0  0
  -13.3912  203.4528  120.7241 H   0  0  0  0  0  0  0  0  0  0  0  0
  -15.9375  203.9431  116.0001 O   0  0  0  0  0  0  0  0  0  0  0  0
  -14.8137  204.4058  115.2305 C   0  0  0  0  0  0  0  0  0  0  0  0
  -15.2915  204.6439  113.7937 C   0  0  0  0  0  0  0  0  0  0  0  0
  -14.1172  204.9156  112.8456 C   0  0  0  0  0  0  0  0  0  0  0  0
  -14.6068  205.0882  111.4077 C   0  0  0  0  0  0  0  0  0  0  0  0
  -15.6708  206.1777  111.2931 C   0  0  0  0  0  0  0  0  0  0  0  0
  -16.8152  205.9694  112.2807 C   0  0  0  0  0  0  0  0  0  0  0  0
  -16.3072  205.7956  113.7099 C   0  0  0  0  0  0  0  0  0  0  0  0
  1  2  2  0  0  0  0
  1  9  1  0  0  0  0
  2  3  1  0  0  0  0
  2 13  1  0  0  0  0
  3  4  2  0  0  0  0
  3  7  1  0  0  0  0
  4  5  1  0  0  0  0
  5  6  2  0  0  0  0
  6  7  1  0  0  0  0
  7  8  2  0  0  0  0
  8  9  1  0  0  0  0
  9 10  1  6  0  0  0
 10 11  1  0  0  0  0
 10 12  1  0  0  0  0
 13 14  1  0  0  0  0
 14 15  1  0  0  0  0
 15 16  1  0  0  0  0
 15 20  1  0  0  0  0
 16 17  1  0  0  0  0
 17 18  1  0  0  0  0
 18 19  1  0  0  0  0
 19 20  1  0  0  0  0
M  END
>  <minimizedAffinity>
-6.16780

$$$$
