# created with PyMOL 2.5.0
@<TRIPOS>MOLECULE
data/CDK2/cocry_dataset/1e1v_CMG_LIG.pdb
35 37 1                 
SMALL
USER_CHARGES
@<TRIPOS>ATOM
1	 H01	-10.455	208.453	115.425	 H	1	UNK0	0.000	
2	 H03	-13.766	207.843	121.271	 H	1	UNK0	0.000	
3	 H02	-13.439	205.891	119.867	 H	1	UNK0	0.000	
4	 H08	-14.111	203.520	114.169	 H	1	UNK0	0.000	
5	 H07	-16.433	204.299	114.236	 H	1	UNK0	0.000	
6	 H06	-14.667	204.517	116.245	 H	1	UNK0	0.000	
7	 H04	-14.383	208.706	120.007	 H	1	UNK0	0.000	
8	 H09	-13.547	205.190	113.860	 H	1	UNK0	0.000	
9	 H16	-15.245	207.068	113.837	 H	1	UNK0	0.000	
10	 H11	-13.633	203.954	111.764	 H	1	UNK0	0.000	
11	 H14	-17.112	205.447	112.086	 H	1	UNK0	0.000	
12	 H13	-14.251	206.271	111.529	 H	1	UNK0	0.000	
13	 H12	-15.342	205.276	110.501	 H	1	UNK0	0.000	
14	 H15	-16.502	207.104	111.752	 H	1	UNK0	0.000	
15	 H10	-15.343	203.502	112.090	 H	1	UNK0	0.000	
16	 H05	-16.378	204.930	116.409	 H	1	UNK0	0.000	
17	 H17	-16.967	206.703	114.164	 H	1	UNK0	0.000	
18	   N	-14.640	206.596	118.441	N.2	1	UNK0	0.000	
19	   C	-14.316	206.780	117.219	C.2	1	UNK0	0.000	
20	   C	-13.005	207.312	116.873	C.2	1	UNK0	0.000	
21	   N	-12.432	207.611	115.752	N.2	1	UNK0	0.000	
22	   C	-11.190	208.106	116.151	C.2	1	UNK0	0.000	
23	   N	-10.949	208.136	117.431	N.2	1	UNK0	0.000	
24	   C	-12.097	207.629	117.957	C.2	1	UNK0	0.000	
25	   N	-12.387	207.467	119.186	N.2	1	UNK0	0.000	
26	   C	-13.685	206.888	119.502	C.3	1	UNK0	0.000	
27	   N	-14.315	207.789	120.424	N.3	1	UNK0	0.000	
28	   O	-15.091	206.551	116.151	O.3	1	UNK0	0.000	
29	   C	-15.453	205.183	115.890	C.3	1	UNK0	0.000	
30	   C	-15.630	205.023	114.376	C.3	1	UNK0	0.000	
31	   C	-14.359	204.479	113.713	C.3	1	UNK0	0.000	
32	   C	-14.575	204.266	112.215	C.3	1	UNK0	0.000	
33	   C	-15.057	205.538	111.521	C.3	1	UNK0	0.000	
34	   C	-16.279	206.139	112.209	C.3	1	UNK0	0.000	
35	   C	-16.047	206.341	113.704	C.3	1	UNK0	0.000	
@<TRIPOS>BOND
1 18 19 2
2 18 26 1
3 19 20 1
4 19 28 1
5 20 21 2
6 20 24 1
7 21 22 1
8 1 22 1
9 22 23 2
10 23 24 1
11 24 25 2
12 25 26 1
13 3 26 1
14 26 27 1
15 2 27 1
16 7 27 1
17 28 29 1
18 6 29 1
19 16 29 1
20 29 30 1
21 5 30 1
22 30 31 1
23 30 35 1
24 4 31 1
25 8 31 1
26 31 32 1
27 10 32 1
28 15 32 1
29 32 33 1
30 12 33 1
31 13 33 1
32 33 34 1
33 11 34 1
34 14 34 1
35 34 35 1
36 9 35 1
37 17 35 1
@<TRIPOS>SUBSTRUCTURE
1	UNK0	1	GROUP	1 ****	UNK
