# created with PyMOL 2.5.0
@<TRIPOS>MOLECULE
data/CDK2/cocry_dataset/1e1x_NW1_LIG.pdb
35 36 1                 
SMALL
USER_CHARGES
@<TRIPOS>ATOM
1	 H01	-13.948	199.277	116.953	 H	1	UNK0	0.000	
2	 H03	-19.589	203.837	117.974	 H	1	UNK0	0.000	
3	 H02	-15.654	198.909	118.215	 H	1	UNK0	0.000	
4	 H08	-14.095	203.334	114.344	 H	1	UNK0	0.000	
5	 H07	-16.465	203.806	114.450	 H	1	UNK0	0.000	
6	 H06	-16.533	205.199	116.496	 H	1	UNK0	0.000	
7	 H04	-20.116	202.267	118.539	 H	1	UNK0	0.000	
8	 H09	-13.715	205.080	114.097	 H	1	UNK0	0.000	
9	 H16	-15.779	206.713	114.002	 H	1	UNK0	0.000	
10	 H11	-13.537	203.914	111.985	 H	1	UNK0	0.000	
11	 H14	-17.192	204.760	112.169	 H	1	UNK0	0.000	
12	 H13	-14.512	206.133	111.817	 H	1	UNK0	0.000	
13	 H12	-15.326	205.031	110.661	 H	1	UNK0	0.000	
14	 H15	-16.918	206.508	111.861	 H	1	UNK0	0.000	
15	 H10	-15.165	203.197	112.214	 H	1	UNK0	0.000	
16	 H05	-14.834	205.698	116.165	 H	1	UNK0	0.000	
17	 H17	-17.412	206.007	114.247	 H	1	UNK0	0.000	
18	   N	-17.249	203.249	117.431	N.2	1	UNK0	0.000	
19	   C	-16.022	202.896	117.248	C.2	1	UNK0	0.000	
20	   C	-15.558	201.487	117.555	C.2	1	UNK0	0.000	
21	   N	-14.305	201.137	117.414	N.2	1	UNK0	0.000	
22	   O	-14.064	199.794	117.753	O.3	1	UNK0	0.000	
23	   C	-16.694	200.612	118.027	C.2	1	UNK0	0.000	
24	   N	-16.556	199.352	118.311	N.2	1	UNK0	0.000	
25	   N	-17.944	201.122	118.191	N.2	1	UNK0	0.000	
26	   C	-18.157	202.367	117.933	C.2	1	UNK0	0.000	
27	   N	-19.391	202.866	118.169	N.pl3	1	UNK0	0.000	
28	   O	-15.081	203.742	116.768	O.3	1	UNK0	0.000	
29	   C	-15.577	204.907	116.062	C.3	1	UNK0	0.000	
30	   C	-15.775	204.643	114.555	C.3	1	UNK0	0.000	
31	   C	-14.426	204.276	113.905	C.3	1	UNK0	0.000	
32	   C	-14.535	204.068	112.395	C.3	1	UNK0	0.000	
33	   C	-15.173	205.273	111.713	C.3	1	UNK0	0.000	
34	   C	-16.525	205.607	112.332	C.3	1	UNK0	0.000	
35	   C	-16.414	205.842	113.840	C.3	1	UNK0	0.000	
@<TRIPOS>BOND
1 18 19 2
2 18 26 1
3 19 20 1
4 19 28 1
5 20 21 2
6 20 23 1
7 21 22 1
8 1 22 1
9 23 24 2
10 23 25 1
11 3 24 1
12 25 26 2
13 26 27 1
14 2 27 1
15 7 27 1
16 28 29 1
17 6 29 1
18 16 29 1
19 29 30 1
20 5 30 1
21 30 31 1
22 30 35 1
23 4 31 1
24 8 31 1
25 31 32 1
26 10 32 1
27 15 32 1
28 32 33 1
29 12 33 1
30 13 33 1
31 33 34 1
32 11 34 1
33 14 34 1
34 34 35 1
35 9 35 1
36 17 35 1
@<TRIPOS>SUBSTRUCTURE
1	UNK0	1	GROUP	1 ****	UNK
