data/CDK2/cocry_dataset/1e1x_NW1_LIG.pdb


 22 23  0  0  0  0  0  0  0  0999 V2000
  -17.2491  203.2488  117.4309 N   0  0  0  0  0  0  0  0  0  0  0  0
  -16.0221  202.8956  117.2481 C   0  0  0  0  0  0  0  0  0  0  0  0
  -15.5583  201.4867  117.5555 C   0  0  0  0  0  0  0  0  0  0  0  0
  -14.3051  201.1368  117.4136 N   0  0  0  0  0  0  0  0  0  0  0  0
  -14.0645  199.7940  117.7533 O   0  0  0  0  0  0  0  0  0  0  0  0
  -16.6943  200.6117  118.0272 C   0  0  0  0  0  0  0  0  0  0  0  0
  -16.5563  199.3520  118.3107 N   0  0  0  0  0  0  0  0  0  0  0  0
  -17.9439  201.1225  118.1908 N   0  0  0  0  0  0  0  0  0  0  0  0
  -18.1569  202.3667  117.9333 C   0  0  0  0  0  0  0  0  0  0  0  0
  -19.3914  202.8658  118.1685 N   0  0  0  0  0  0  0  0  0  0  0  0
  -13.1011  199.6955  117.6107 H   0  0  0  0  0  0  0  0  0  0  0  0
  -15.5630  199.1091  118.1646 H   0  0  0  0  0  0  0  0  0  0  0  0
  -20.1179  202.1585  118.2234 H   0  0  0  0  0  0  0  0  0  0  0  0
  -19.6286  203.7043  117.6623 H   0  0  0  0  0  0  0  0  0  0  0  0
  -15.0810  203.7424  116.7681 O   0  0  0  0  0  0  0  0  0  0  0  0
  -15.5768  204.9072  116.0624 C   0  0  0  0  0  0  0  0  0  0  0  0
  -15.7754  204.6434  114.5550 C   0  0  0  0  0  0  0  0  0  0  0  0
  -14.4256  204.2758  113.9054 C   0  0  0  0  0  0  0  0  0  0  0  0
  -14.5346  204.0680  112.3952 C   0  0  0  0  0  0  0  0  0  0  0  0
  -15.1729  205.2726  111.7127 C   0  0  0  0  0  0  0  0  0  0  0  0
  -16.5254  205.6065  112.3320 C   0  0  0  0  0  0  0  0  0  0  0  0
  -16.4145  205.8422  113.8395 C   0  0  0  0  0  0  0  0  0  0  0  0
  1  2  2  0  0  0
  1  9  1  0  0  0
  2 15  1  0  0  0
  2  3  1  0  0  0
 15 16  1  0  0  0
 16 17  1  0  0  0
 17 18  1  0  0  0
 17 22  1  0  0  0
 18 19  1  0  0  0
 19 20  1  0  0  0
 20 21  1  0  0  0
 21 22  1  0  0  0
  3  4  2  0  0  0
  3  6  1  0  0  0
  4  5  1  0  0  0
  5 11  1  0  0  0
  6  7  2  0  0  0
  6  8  1  0  0  0
  7 12  1  0  0  0
  8  9  2  0  0  0
  9 10  1  0  0  0
 10 13  1  0  0  0
 10 14  1  0  0  0
M  END
> <minimizedAffinity>
-6.55428

$$$$
data/CDK2/cocry_dataset/1e1x_NW1_LIG.pdb


 22 23  0  0  0  0  0  0  0  0999 V2000
   -8.9325  207.0445  112.4009 N   0  0  0  0  0  0  0  0  0  0  0  0
   -9.7552  206.9763  113.3919 C   0  0  0  0  0  0  0  0  0  0  0  0
   -9.6031  207.8774  114.6000 C   0  0  0  0  0  0  0  0  0  0  0  0
  -10.4089  207.7806  115.6267 N   0  0  0  0  0  0  0  0  0  0  0  0
  -10.1082  208.6930  116.6531 O   0  0  0  0  0  0  0  0  0  0  0  0
   -8.4467  208.8352  114.4443 C   0  0  0  0  0  0  0  0  0  0  0  0
   -8.1411  209.7365  115.3277 N   0  0  0  0  0  0  0  0  0  0  0  0
   -7.6461  208.7861  113.3462 N   0  0  0  0  0  0  0  0  0  0  0  0
   -7.8849  207.9143  112.4282 C   0  0  0  0  0  0  0  0  0  0  0  0
   -7.0345  207.8412  111.3795 N   0  0  0  0  0  0  0  0  0  0  0  0
  -10.7762  208.4880  117.3386 H   0  0  0  0  0  0  0  0  0  0  0  0
   -8.8111  209.6441  116.1083 H   0  0  0  0  0  0  0  0  0  0  0  0
   -6.4732  208.6768  111.2454 H   0  0  0  0  0  0  0  0  0  0  0  0
   -7.4060  207.4198  110.5428 H   0  0  0  0  0  0  0  0  0  0  0  0
  -10.7999  206.1153  113.4172 O   0  0  0  0  0  0  0  0  0  0  0  0
  -11.5784  206.0271  112.1979 C   0  0  0  0  0  0  0  0  0  0  0  0
  -13.0977  206.0166  112.4676 C   0  0  0  0  0  0  0  0  0  0  0  0
  -13.4484  204.8753  113.4440 C   0  0  0  0  0  0  0  0  0  0  0  0
  -14.9502  204.7611  113.7034 C   0  0  0  0  0  0  0  0  0  0  0  0
  -15.7321  204.6406  112.4002 C   0  0  0  0  0  0  0  0  0  0  0  0
  -15.4122  205.7932  111.4550 C   0  0  0  0  0  0  0  0  0  0  0  0
  -13.9121  205.8928  111.1717 C   0  0  0  0  0  0  0  0  0  0  0  0
  1  2  2  0  0  0
  1  9  1  0  0  0
  2 15  1  0  0  0
  2  3  1  0  0  0
 15 16  1  0  0  0
 16 17  1  0  0  0
 17 18  1  0  0  0
 17 22  1  0  0  0
 18 19  1  0  0  0
 19 20  1  0  0  0
 20 21  1  0  0  0
 21 22  1  0  0  0
  3  4  2  0  0  0
  3  6  1  0  0  0
  4  5  1  0  0  0
  5 11  1  0  0  0
  6  7  2  0  0  0
  6  8  1  0  0  0
  7 12  1  0  0  0
  8  9  2  0  0  0
  9 10  1  0  0  0
 10 13  1  0  0  0
 10 14  1  0  0  0
M  END
> <minimizedAffinity>
-6.52890

$$$$
data/CDK2/cocry_dataset/1e1x_NW1_LIG.pdb


 22 23  0  0  0  0  0  0  0  0999 V2000
  -12.6936  204.5417  117.4896 N   0  0  0  0  0  0  0  0  0  0  0  0
  -13.2838  205.3296  116.6563 C   0  0  0  0  0  0  0  0  0  0  0  0
  -13.7828  206.6936  117.0867 C   0  0  0  0  0  0  0  0  0  0  0  0
  -14.4215  207.4777  116.2560 N   0  0  0  0  0  0  0  0  0  0  0  0
  -14.8123  208.6969  116.8367 O   0  0  0  0  0  0  0  0  0  0  0  0
  -13.4545  206.9815  118.5318 C   0  0  0  0  0  0  0  0  0  0  0  0
  -13.7401  208.1034  119.1200 N   0  0  0  0  0  0  0  0  0  0  0  0
  -12.8383  206.0474  119.3044 N   0  0  0  0  0  0  0  0  0  0  0  0
  -12.5277  204.9074  118.7910 C   0  0  0  0  0  0  0  0  0  0  0  0
  -11.9774  203.9718  119.5974 N   0  0  0  0  0  0  0  0  0  0  0  0
  -15.2798  209.1532  116.1077 H   0  0  0  0  0  0  0  0  0  0  0  0
  -14.2201  208.7018  118.4283 H   0  0  0  0  0  0  0  0  0  0  0  0
  -11.5683  204.3494  120.4466 H   0  0  0  0  0  0  0  0  0  0  0  0
  -11.4467  203.2514  119.1339 H   0  0  0  0  0  0  0  0  0  0  0  0
  -13.4871  205.0020  115.3584 O   0  0  0  0  0  0  0  0  0  0  0  0
  -14.7077  204.2752  115.0716 C   0  0  0  0  0  0  0  0  0  0  0  0
  -15.2201  204.5251  113.6377 C   0  0  0  0  0  0  0  0  0  0  0  0
  -14.0302  204.8115  112.6989 C   0  0  0  0  0  0  0  0  0  0  0  0
  -14.4696  205.1375  111.2719 C   0  0  0  0  0  0  0  0  0  0  0  0
  -15.4851  206.2743  111.2486 C   0  0  0  0  0  0  0  0  0  0  0  0
  -16.6784  205.9681  112.1468 C   0  0  0  0  0  0  0  0  0  0  0  0
  -16.2436  205.6684  113.5825 C   0  0  0  0  0  0  0  0  0  0  0  0
  1  2  2  0  0  0
  1  9  1  0  0  0
  2 15  1  0  0  0
  2  3  1  0  0  0
 15 16  1  0  0  0
 16 17  1  0  0  0
 17 18  1  0  0  0
 17 22  1  0  0  0
 18 19  1  0  0  0
 19 20  1  0  0  0
 20 21  1  0  0  0
 21 22  1  0  0  0
  3  4  2  0  0  0
  3  6  1  0  0  0
  4  5  1  0  0  0
  5 11  1  0  0  0
  6  7  2  0  0  0
  6  8  1  0  0  0
  7 12  1  0  0  0
  8  9  2  0  0  0
  9 10  1  0  0  0
 10 13  1  0  0  0
 10 14  1  0  0  0
M  END
> <minimizedAffinity>
-6.40887

$$$$
