# created with PyMOL 2.5.0
@<TRIPOS>MOLECULE
data/CDK2/cocry_dataset/1e1x_NW1_LIG.pdb
35 36 1                 
SMALL
USER_CHARGES
@<TRIPOS>ATOM
1	 H01	-9.879	208.213	117.452	 H	1	UNK0	0.000	
2	 H03	-7.197	207.169	110.643	 H	1	UNK0	0.000	
3	 H02	-8.692	209.826	116.170	 H	1	UNK0	0.000	
4	 H08	-12.966	205.097	114.396	 H	1	UNK0	0.000	
5	 H07	-13.364	206.972	112.920	 H	1	UNK0	0.000	
6	 H06	-11.340	206.884	111.567	 H	1	UNK0	0.000	
7	 H04	-6.236	208.458	111.333	 H	1	UNK0	0.000	
8	 H09	-13.094	203.934	113.023	 H	1	UNK0	0.000	
9	 H16	-13.601	204.982	110.660	 H	1	UNK0	0.000	
10	 H11	-15.139	203.878	114.314	 H	1	UNK0	0.000	
11	 H14	-15.730	206.721	111.931	 H	1	UNK0	0.000	
12	 H13	-15.472	203.700	111.915	 H	1	UNK0	0.000	
13	 H12	-16.796	204.672	112.633	 H	1	UNK0	0.000	
14	 H15	-15.940	205.637	110.514	 H	1	UNK0	0.000	
15	 H10	-15.279	205.664	114.218	 H	1	UNK0	0.000	
16	 H05	-11.322	205.087	111.708	 H	1	UNK0	0.000	
17	 H17	-13.726	206.770	110.551	 H	1	UNK0	0.000	
18	   N	-8.932	207.044	112.401	N.2	1	UNK0	0.000	
19	   C	-9.755	206.976	113.392	C.2	1	UNK0	0.000	
20	   C	-9.603	207.877	114.600	C.2	1	UNK0	0.000	
21	   N	-10.409	207.781	115.627	N.2	1	UNK0	0.000	
22	   O	-10.108	208.693	116.653	O.3	1	UNK0	0.000	
23	   C	-8.447	208.835	114.444	C.2	1	UNK0	0.000	
24	   N	-8.141	209.736	115.328	N.2	1	UNK0	0.000	
25	   N	-7.646	208.786	113.346	N.2	1	UNK0	0.000	
26	   C	-7.885	207.914	112.428	C.2	1	UNK0	0.000	
27	   N	-7.035	207.841	111.380	N.pl3	1	UNK0	0.000	
28	   O	-10.800	206.115	113.417	O.3	1	UNK0	0.000	
29	   C	-11.578	206.027	112.198	C.3	1	UNK0	0.000	
30	   C	-13.098	206.017	112.468	C.3	1	UNK0	0.000	
31	   C	-13.448	204.875	113.444	C.3	1	UNK0	0.000	
32	   C	-14.950	204.761	113.703	C.3	1	UNK0	0.000	
33	   C	-15.732	204.641	112.400	C.3	1	UNK0	0.000	
34	   C	-15.412	205.793	111.455	C.3	1	UNK0	0.000	
35	   C	-13.912	205.893	111.172	C.3	1	UNK0	0.000	
@<TRIPOS>BOND
1 18 19 2
2 18 26 1
3 19 20 1
4 19 28 1
5 20 21 2
6 20 23 1
7 21 22 1
8 1 22 1
9 23 24 2
10 23 25 1
11 3 24 1
12 25 26 2
13 26 27 1
14 2 27 1
15 7 27 1
16 28 29 1
17 6 29 1
18 16 29 1
19 29 30 1
20 5 30 1
21 30 31 1
22 30 35 1
23 4 31 1
24 8 31 1
25 31 32 1
26 10 32 1
27 15 32 1
28 32 33 1
29 12 33 1
30 13 33 1
31 33 34 1
32 11 34 1
33 14 34 1
34 34 35 1
35 9 35 1
36 17 35 1
@<TRIPOS>SUBSTRUCTURE
1	UNK0	1	GROUP	1 ****	UNK
