data/CDK2/cocry_dataset/1e1x_NW1_LIG.pdb
 OpenBabel03092321123D

 22 23  0  0  0  0  0  0  0  0999 V2000
  -12.6936  204.5417  117.4896 N   0  0  0  0  0  0  0  0  0  0  0  0
  -13.2838  205.3296  116.6563 C   0  0  0  0  0  0  0  0  0  0  0  0
  -13.7828  206.6936  117.0867 C   0  0  0  0  0  0  0  0  0  0  0  0
  -14.4215  207.4777  116.2560 N   0  0  0  0  0  0  0  0  0  0  0  0
  -14.8123  208.6969  116.8367 O   0  0  0  0  0  0  0  0  0  0  0  0
  -13.4545  206.9815  118.5318 C   0  0  0  0  0  0  0  0  0  0  0  0
  -13.7401  208.1034  119.1200 N   0  0  0  0  0  0  0  0  0  0  0  0
  -12.8383  206.0474  119.3044 N   0  0  0  0  0  0  0  0  0  0  0  0
  -12.5277  204.9074  118.7910 C   0  0  0  0  0  0  0  0  0  0  0  0
  -11.9774  203.9718  119.5974 N   0  0  0  0  0  0  0  0  0  0  0  0
  -15.2798  209.1532  116.1077 H   0  0  0  0  0  0  0  0  0  0  0  0
  -14.2201  208.7018  118.4283 H   0  0  0  0  0  0  0  0  0  0  0  0
  -11.5683  204.3494  120.4466 H   0  0  0  0  0  0  0  0  0  0  0  0
  -11.4467  203.2514  119.1339 H   0  0  0  0  0  0  0  0  0  0  0  0
  -13.4871  205.0020  115.3584 O   0  0  0  0  0  0  0  0  0  0  0  0
  -14.7077  204.2752  115.0716 C   0  0  0  0  0  0  0  0  0  0  0  0
  -15.2201  204.5251  113.6377 C   0  0  0  0  0  0  0  0  0  0  0  0
  -14.0302  204.8115  112.6989 C   0  0  0  0  0  0  0  0  0  0  0  0
  -14.4696  205.1375  111.2719 C   0  0  0  0  0  0  0  0  0  0  0  0
  -15.4851  206.2743  111.2486 C   0  0  0  0  0  0  0  0  0  0  0  0
  -16.6784  205.9681  112.1468 C   0  0  0  0  0  0  0  0  0  0  0  0
  -16.2436  205.6684  113.5825 C   0  0  0  0  0  0  0  0  0  0  0  0
  1  2  2  0  0  0  0
  1  9  1  0  0  0  0
  2 15  1  0  0  0  0
  2  3  1  0  0  0  0
  3  4  2  0  0  0  0
  3  6  1  0  0  0  0
  4  5  1  0  0  0  0
  5 11  1  0  0  0  0
  6  7  2  0  0  0  0
  6  8  1  0  0  0  0
  7 12  1  0  0  0  0
  8  9  2  0  0  0  0
  9 10  1  0  0  0  0
 10 13  1  0  0  0  0
 10 14  1  0  0  0  0
 15 16  1  0  0  0  0
 16 17  1  0  0  0  0
 17 18  1  0  0  0  0
 17 22  1  0  0  0  0
 18 19  1  0  0  0  0
 19 20  1  0  0  0  0
 20 21  1  0  0  0  0
 21 22  1  0  0  0  0
M  END
>  <minimizedAffinity>
-6.40887

$$$$
