data/CDK2/cocry_dataset/1e1x_NW1_LIG.pdb
 OpenBabel03092321123D

 22 23  0  0  0  0  0  0  0  0999 V2000
   -8.9325  207.0445  112.4009 N   0  0  0  0  0  0  0  0  0  0  0  0
   -9.7552  206.9763  113.3919 C   0  0  0  0  0  0  0  0  0  0  0  0
   -9.6031  207.8774  114.6000 C   0  0  0  0  0  0  0  0  0  0  0  0
  -10.4089  207.7806  115.6267 N   0  0  0  0  0  0  0  0  0  0  0  0
  -10.1082  208.6930  116.6531 O   0  0  0  0  0  0  0  0  0  0  0  0
   -8.4467  208.8352  114.4443 C   0  0  0  0  0  0  0  0  0  0  0  0
   -8.1411  209.7365  115.3277 N   0  0  0  0  0  0  0  0  0  0  0  0
   -7.6461  208.7861  113.3462 N   0  0  0  0  0  0  0  0  0  0  0  0
   -7.8849  207.9143  112.4282 C   0  0  0  0  0  0  0  0  0  0  0  0
   -7.0345  207.8412  111.3795 N   0  0  0  0  0  0  0  0  0  0  0  0
  -10.7762  208.4880  117.3386 H   0  0  0  0  0  0  0  0  0  0  0  0
   -8.8111  209.6441  116.1083 H   0  0  0  0  0  0  0  0  0  0  0  0
   -6.4732  208.6768  111.2454 H   0  0  0  0  0  0  0  0  0  0  0  0
   -7.4060  207.4198  110.5428 H   0  0  0  0  0  0  0  0  0  0  0  0
  -10.7999  206.1153  113.4172 O   0  0  0  0  0  0  0  0  0  0  0  0
  -11.5784  206.0271  112.1979 C   0  0  0  0  0  0  0  0  0  0  0  0
  -13.0977  206.0166  112.4676 C   0  0  0  0  0  0  0  0  0  0  0  0
  -13.4484  204.8753  113.4440 C   0  0  0  0  0  0  0  0  0  0  0  0
  -14.9502  204.7611  113.7034 C   0  0  0  0  0  0  0  0  0  0  0  0
  -15.7321  204.6406  112.4002 C   0  0  0  0  0  0  0  0  0  0  0  0
  -15.4122  205.7932  111.4550 C   0  0  0  0  0  0  0  0  0  0  0  0
  -13.9121  205.8928  111.1717 C   0  0  0  0  0  0  0  0  0  0  0  0
  1  2  2  0  0  0  0
  1  9  1  0  0  0  0
  2 15  1  0  0  0  0
  2  3  1  0  0  0  0
  3  4  2  0  0  0  0
  3  6  1  0  0  0  0
  4  5  1  0  0  0  0
  5 11  1  0  0  0  0
  6  7  2  0  0  0  0
  6  8  1  0  0  0  0
  7 12  1  0  0  0  0
  8  9  2  0  0  0  0
  9 10  1  0  0  0  0
 10 13  1  0  0  0  0
 10 14  1  0  0  0  0
 15 16  1  0  0  0  0
 16 17  1  0  0  0  0
 17 18  1  0  0  0  0
 17 22  1  0  0  0  0
 18 19  1  0  0  0  0
 19 20  1  0  0  0  0
 20 21  1  0  0  0  0
 21 22  1  0  0  0  0
M  END
>  <minimizedAffinity>
-6.52890

$$$$
