data/CDK2/cocry_dataset/1e9h_INR_LIG.pdb
 OpenBabel03092321123D

 28 31  0  0  0  0  0  0  0  0999 V2000
  -11.5170  206.0313  111.3315 C   0  0  2  0  0  0  0  0  0  0  0  0
  -11.3321  206.6000  109.9248 C   0  0  0  0  0  0  0  0  0  0  0  0
  -10.2769  206.7418  109.3309 O   0  0  0  0  0  0  0  0  0  0  0  0
  -12.5989  206.8799  109.4153 N   0  0  0  0  0  0  0  0  0  0  0  0
  -13.5893  206.6012  110.3425 C   0  0  0  0  0  0  0  0  0  0  0  0
  -13.0081  206.1346  111.5224 C   0  0  0  0  0  0  0  0  0  0  0  0
  -13.7948  205.7575  112.5941 C   0  0  0  0  0  0  0  0  0  0  0  0
  -15.1793  205.8431  112.4318 C   0  0  0  0  0  0  0  0  0  0  0  0
  -15.7651  206.3136  111.2455 C   0  0  0  0  0  0  0  0  0  0  0  0
  -14.9553  206.7102  110.1773 C   0  0  0  0  0  0  0  0  0  0  0  0
  -12.7448  207.2424  108.4840 H   0  0  0  0  0  0  0  0  0  0  0  0
   -9.4525  208.0288  113.5255 C   0  0  0  0  0  0  0  0  0  0  0  0
   -9.6407  206.9992  114.4470 C   0  0  0  0  0  0  0  0  0  0  0  0
   -9.0976  206.9987  115.7160 C   0  0  0  0  0  0  0  0  0  0  0  0
   -8.3172  208.1028  116.0664 C   0  0  0  0  0  0  0  0  0  0  0  0
   -8.1071  209.1536  115.1517 C   0  0  0  0  0  0  0  0  0  0  0  0
   -8.6788  209.1204  113.8726 C   0  0  0  0  0  0  0  0  0  0  0  0
  -10.4604  206.0203  113.7491 C   0  0  0  0  0  0  0  0  0  0  0  0
  -10.8156  204.9246  114.1060 O   0  0  0  0  0  0  0  0  0  0  0  0
  -10.7113  206.6759  112.3930 C   0  0  0  0  0  0  0  0  0  0  0  0
  -10.0948  207.8257  112.2871 N   0  0  0  0  0  0  0  0  0  0  0  0
  -16.1907  205.2920  113.7148 S   0  0  0  0  0  0  0  0  0  0  0  0
  -17.6618  204.9400  113.1878 O   0  0  0  0  0  0  0  0  0  0  0  0
  -15.6289  203.9762  114.4347 O   0  0  0  0  0  0  0  0  0  0  0  0
  -16.3701  206.4217  114.8323 O   0  0  0  0  0  0  0  0  0  0  0  0
  -17.7730  204.0185  112.8651 H   0  0  0  0  0  0  0  0  0  0  0  0
  -15.3553  203.2434  113.8424 H   0  0  0  0  0  0  0  0  0  0  0  0
  -17.1536  206.9949  114.6769 H   0  0  0  0  0  0  0  0  0  0  0  0
  1  2  1  0  0  0  0
  1  6  1  0  0  0  0
  1 20  1  1  0  0  0
  2  3  2  0  0  0  0
  2  4  1  0  0  0  0
  4  5  1  0  0  0  0
  4 11  1  0  0  0  0
  5  6  1  0  0  0  0
  5 10  2  0  0  0  0
  6  7  2  0  0  0  0
  7  8  1  0  0  0  0
  8  9  2  0  0  0  0
  8 22  1  0  0  0  0
  9 10  1  0  0  0  0
 12 13  1  0  0  0  0
 12 17  2  0  0  0  0
 12 21  1  0  0  0  0
 13 14  2  0  0  0  0
 13 18  1  0  0  0  0
 14 15  1  0  0  0  0
 15 16  2  0  0  0  0
 16 17  1  0  0  0  0
 18 19  2  0  0  0  0
 18 20  1  0  0  0  0
 20 21  2  0  0  0  0
 22 23  1  0  0  0  0
 22 24  1  0  0  0  0
 22 25  1  0  0  0  0
 23 26  1  0  0  0  0
 24 27  1  0  0  0  0
 25 28  1  0  0  0  0
M  END
>  <minimizedAffinity>
-7.56470

$$$$
