# created with PyMOL 2.5.0
@<TRIPOS>MOLECULE
data/CDK2/cocry_dataset/1fin_ATP_LIG.pdb
47 49 1                 
SMALL
USER_CHARGES
@<TRIPOS>ATOM
1	 H06	-10.745	207.440	110.598	 H	1	UNK0	0.000	
2	 H03	-11.002	208.490	112.776	 H	1	UNK0	0.000	
3	 H07	-11.001	204.982	114.962	 H	1	UNK0	0.000	
4	 H08	-16.426	203.972	112.067	 H	1	UNK0	0.000	
5	 H13	-10.731	209.767	117.557	 H	1	UNK0	0.000	
6	 H09	-15.491	203.664	113.513	 H	1	UNK0	0.000	
7	 H14	-14.053	209.062	117.301	 H	1	UNK0	0.000	
8	 H11	-8.143	209.182	115.584	 H	1	UNK0	0.000	
9	 H02	-9.598	205.976	111.934	 H	1	UNK0	0.000	
10	 H12	-8.510	207.580	116.273	 H	1	UNK0	0.000	
11	 H01	-7.396	207.436	114.101	 H	1	UNK0	0.000	
12	 H15	-15.682	203.850	115.046	 H	1	UNK0	0.000	
13	 H10	-13.840	206.580	109.383	 H	1	UNK0	0.000	
14	 H16	-13.153	204.668	115.871	 H	1	UNK0	0.000	
15	 H05	-7.664	209.399	111.574	 H	1	UNK0	0.000	
16	 H04	-8.890	209.588	113.264	 H	1	UNK0	0.000	
17	   C	-8.467	207.637	114.116	C.3	1	UNK0	0.000	
18	   O	-9.235	206.420	113.964	O.3	1	UNK0	0.000	
19	   C	-10.037	206.514	112.774	C.3	1	UNK0	0.000	
20	   C	-10.119	207.987	112.383	C.3	1	UNK0	0.000	
21	   C	-8.819	208.550	112.936	C.3	1	UNK0	0.000	
22	   O	-7.821	208.511	111.901	O.3	1	UNK0	0.000	
23	   O	-10.230	208.160	110.969	O.3	1	UNK0	0.000	
24	   N	-11.325	205.895	113.013	N.pl3	1	UNK0	0.000	
25	   C	-11.663	205.149	114.113	C.2	1	UNK0	0.000	
26	   N	-12.882	204.659	114.021	N.2	1	UNK0	0.000	
27	   C	-13.338	205.084	112.790	C.2	1	UNK0	0.000	
28	   C	-14.540	204.865	112.096	C.2	1	UNK0	0.000	
29	   N	-15.580	204.097	112.605	N.pl3	1	UNK0	0.000	
30	   N	-14.697	205.432	110.878	N.2	1	UNK0	0.000	
31	   C	-13.678	206.162	110.376	C.2	1	UNK0	0.000	
32	   N	-12.487	206.441	110.942	N.2	1	UNK0	0.000	
33	   C	-12.389	205.868	112.155	C.2	1	UNK0	0.000	
34	   C	-8.753	208.285	115.478	C.3	1	UNK0	0.000	
35	   O	-10.130	208.641	115.564	O.3	1	UNK0	0.000	
36	   P	-11.043	207.873	116.643	P.3	1	UNK0	0.000	
37	   O	-10.479	206.585	117.162	O.co2	1	UNK0	0.000	
38	   O	-11.152	208.948	117.828	O.3	1	UNK0	0.000	
39	   O	-12.514	207.835	116.026	O.3	1	UNK0	0.000	
40	   P	-13.832	206.989	116.759	P.3	1	UNK0	0.000	
41	   O	-14.695	207.246	115.523	O.co2	1	UNK0	0.000	
42	   O	-14.145	208.232	117.774	O.3	1	UNK0	0.000	
43	   O	-15.150	206.142	117.493	O.3	1	UNK0	0.000	
44	   P	-15.015	204.649	116.887	P.3	1	UNK0	0.000	
45	   O	-15.658	203.553	117.665	O.co2	1	UNK0	0.000	
46	   O	-15.428	204.724	115.352	O.3	1	UNK0	0.000	
47	   O	-13.449	204.371	116.735	O.3	1	UNK0	0.000	
@<TRIPOS>BOND
1 11 17 1
2 17 18 1
3 17 21 1
4 17 34 1
5 18 19 1
6 9 19 1
7 19 20 1
8 19 24 1
9 2 20 1
10 20 21 1
11 20 23 1
12 16 21 1
13 21 22 1
14 15 22 1
15 1 23 1
16 24 25 1
17 24 33 1
18 3 25 1
19 25 26 2
20 26 27 1
21 27 28 1
22 27 33 2
23 28 29 1
24 28 30 2
25 4 29 1
26 6 29 1
27 30 31 1
28 13 31 1
29 31 32 2
30 32 33 1
31 8 34 1
32 10 34 1
33 34 35 1
34 35 36 1
35 36 37 2
36 36 38 1
37 36 39 1
38 5 38 1
39 39 40 1
40 40 41 2
41 40 42 1
42 7 42 1
43 40 43 1
44 43 44 1
45 44 45 2
46 44 46 1
47 44 47 1
48 12 46 1
49 14 47 1
@<TRIPOS>SUBSTRUCTURE
1	UNK0	1	GROUP	1 ****	UNK
