# created with PyMOL 2.5.0
@<TRIPOS>MOLECULE
data/CDK2/cocry_dataset/1fin_ATP_LIG.pdb
47 49 1                 
SMALL
USER_CHARGES
@<TRIPOS>ATOM
1	   C	-11.026	204.678	116.794	C.3	1	UNK0	0.000	
2	   O	-11.279	204.292	115.423	O.3	1	UNK0	0.000	
3	   C	-10.711	205.279	114.544	C.3	1	UNK0	0.000	
4	   C	-10.468	206.544	115.360	C.3	1	UNK0	0.000	
5	   C	-10.248	205.998	116.763	C.3	1	UNK0	0.000	
6	   O	-8.839	205.804	116.967	O.3	1	UNK0	0.000	
7	   O	-9.342	207.282	114.881	O.3	1	UNK0	0.000	
8	   N	-11.589	205.469	113.407	N.pl3	1	UNK0	0.000	
9	   C	-12.804	204.860	113.222	C.2	1	UNK0	0.000	
10	   N	-13.343	205.177	112.063	N.2	1	UNK0	0.000	
11	   C	-12.417	206.005	111.460	C.2	1	UNK0	0.000	
12	   C	-12.386	206.640	110.208	C.2	1	UNK0	0.000	
13	   N	-13.406	206.522	109.272	N.pl3	1	UNK0	0.000	
14	   N	-11.317	207.408	109.899	N.2	1	UNK0	0.000	
15	   C	-10.318	207.508	110.801	C.2	1	UNK0	0.000	
16	   N	-10.234	206.950	112.025	N.2	1	UNK0	0.000	
17	   C	-11.326	206.211	112.289	C.2	1	UNK0	0.000	
18	   C	-12.345	204.781	117.573	C.3	1	UNK0	0.000	
19	   O	-13.204	203.702	117.218	O.3	1	UNK0	0.000	
20	   P	-14.655	204.054	116.622	P.3	1	UNK0	0.000	
21	   O	-15.255	203.009	115.730	O.co2	1	UNK0	0.000	
22	   O	-15.539	204.224	117.949	O.3	1	UNK0	0.000	
23	   O	-14.546	205.538	116.045	O.3	1	UNK0	0.000	
24	   P	-15.629	206.180	114.859	P.3	1	UNK0	0.000	
25	   O	-15.765	207.469	115.672	O.co2	1	UNK0	0.000	
26	   O	-16.849	205.217	115.365	O.3	1	UNK0	0.000	
27	   O	-16.712	206.823	113.673	O.3	1	UNK0	0.000	
28	   P	-16.904	205.593	112.642	P.3	1	UNK0	0.000	
29	   O	-16.805	205.919	111.191	O.co2	1	UNK0	0.000	
30	   O	-15.962	204.411	113.136	O.3	1	UNK0	0.000	
31	   O	-18.333	204.958	112.967	O.3	1	UNK0	0.000	
32	 H01	-10.431	203.928	117.316	 H	1	UNK0	0.000	
33	 H02	-9.753	204.964	114.131	 H	1	UNK0	0.000	
34	 H03	-11.289	207.259	115.305	 H	1	UNK0	0.000	
35	 H04	-10.592	206.663	117.555	 H	1	UNK0	0.000	
36	 H05	-8.496	205.210	116.295	 H	1	UNK0	0.000	
37	 H06	-9.123	207.976	115.507	 H	1	UNK0	0.000	
38	 H07	-13.268	204.193	113.949	 H	1	UNK0	0.000	
39	 H08	-13.336	207.001	108.386	 H	1	UNK0	0.000	
40	 H09	-14.217	205.956	109.477	 H	1	UNK0	0.000	
41	 H10	-9.467	208.119	110.501	 H	1	UNK0	0.000	
42	 H11	-12.136	204.736	118.642	 H	1	UNK0	0.000	
43	 H12	-12.834	205.726	117.334	 H	1	UNK0	0.000	
44	 H13	-15.634	205.157	118.154	 H	1	UNK0	0.000	
45	 H14	-17.062	205.422	116.278	 H	1	UNK0	0.000	
46	 H15	-15.744	203.842	112.394	 H	1	UNK0	0.000	
47	 H16	-18.599	205.205	113.855	 H	1	UNK0	0.000	
@<TRIPOS>BOND
1 28 29 2
2 28 30 1
3 28 31 1
4 27 28 1
5 24 27 1
6 24 25 2
7 24 26 1
8 23 24 1
9 20 22 1
10 19 20 1
11 20 21 2
12 20 23 1
13 18 19 1
14 1 18 1
15 1 2 1
16 1 5 1
17 2 3 1
18 3 4 1
19 3 8 1
20 4 5 1
21 4 7 1
22 5 6 1
23 8 9 1
24 8 17 1
25 9 10 2
26 10 11 1
27 11 12 1
28 11 17 2
29 12 13 1
30 12 14 2
31 14 15 1
32 15 16 2
33 16 17 1
34 1 32 1
35 3 33 1
36 4 34 1
37 5 35 1
38 6 36 1
39 7 37 1
40 9 38 1
41 13 39 1
42 13 40 1
43 15 41 1
44 18 42 1
45 18 43 1
46 22 44 1
47 26 45 1
48 30 46 1
49 31 47 1
@<TRIPOS>SUBSTRUCTURE
1	UNK0	1	GROUP	1 ****	UNK
