ZINC14974486
 OpenBabel12132115083D

 69 74  0  0  1  0  0  0  0  0999 V2000
   -5.9227   11.5416   -6.2277 C   0  0  0  0  0  0  0  0  0  0  0  0
   -4.8941   12.5543   -5.7156 C   0  0  0  0  0  0  0  0  0  0  0  0
   -4.1210   11.9987   -4.5335 C   0  0  0  0  0  0  0  0  0  0  0  0
   -2.7518   11.4154   -4.8643 C   0  0  2  0  0  0  0  0  0  0  0  0
   -1.9782   12.5165   -5.6493 C   0  0  0  0  0  0  0  0  0  0  0  0
   -2.7015   12.4028   -7.0212 C   0  0  2  0  0  0  0  0  0  0  0  0
   -4.0555   13.0935   -6.8610 C   0  0  0  0  0  0  0  0  0  0  0  0
   -2.9282   10.8792   -7.1758 C   0  0  0  0  0  0  0  0  0  0  0  0
   -3.7230    9.2262   -5.5201 C   0  0  0  0  0  0  0  0  0  0  0  0
   -3.2419    8.5094   -4.2848 C   0  0  0  0  0  0  0  0  0  0  0  0
   -4.0013    8.5380   -3.1598 C   0  0  0  0  0  0  0  0  0  0  0  0
   -3.5711    7.8800   -2.0078 C   0  0  0  0  0  0  0  0  0  0  0  0
   -2.3560    7.1986   -2.0341 C   0  0  0  0  0  0  0  0  0  0  0  0
   -1.5952    7.2024   -3.2318 C   0  0  0  0  0  0  0  0  0  0  0  0
   -0.5266    6.6180   -3.2791 O   0  0  0  0  0  0  0  0  0  0  0  0
   -2.0600    7.8491   -4.3176 N   0  0  0  0  0  0  0  0  0  0  0  0
   -1.8677    6.4929   -0.8395 C   0  0  0  0  0  0  0  0  0  0  0  0
   -2.5722    6.4107    0.1488 O   0  0  0  0  0  0  0  0  0  0  0  0
   -0.6398    5.9373   -0.8399 N   0  0  0  0  0  0  0  0  0  0  0  0
   -0.1117    5.3266    0.3826 C   0  0  0  0  0  0  0  0  0  0  0  0
   -0.5207    3.8760    0.4572 C   0  0  0  0  0  0  0  0  0  0  0  0
   -1.7550    3.2636    0.5061 C   0  0  0  0  0  0  0  0  0  0  0  0
   -1.8418    1.8839    0.5672 C   0  0  0  0  0  0  0  0  0  0  0  0
   -0.6910    1.1169    0.5891 C   0  0  0  0  0  0  0  0  0  0  0  0
    0.5481    1.7212    0.5401 C   0  0  0  0  0  0  0  0  0  0  0  0
    0.6433    3.1123    0.4735 C   0  0  0  0  0  0  0  0  0  0  0  0
    1.8237    4.0095    0.4117 C   0  0  0  0  0  0  0  0  0  0  0  0
    1.3971    5.3336    0.3569 C   0  0  0  0  0  0  0  0  0  0  0  0
    2.3171    6.3586    0.2932 C   0  0  0  0  0  0  0  0  0  0  0  0
    3.6713    6.0743    0.2833 C   0  0  0  0  0  0  0  0  0  0  0  0
    4.1048    4.7619    0.3374 C   0  0  0  0  0  0  0  0  0  0  0  0
    3.1914    3.7302    0.4018 C   0  0  0  0  0  0  0  0  0  0  0  0
   -1.8681   12.9872   -8.1708 C   0  0  0  0  0  0  0  0  0  0  0  0
   -5.7179   13.7562   -5.1734 C   0  0  0  0  0  0  0  0  0  0  0  0
   -2.7241   10.3078   -5.8426 N   0  3  2  0  0  0  0  0  0  0  0  0
   -5.3937   10.7111   -6.7181 H   0  0  0  0  0  0  0  0  0  0  0  0
   -6.5770   12.0359   -6.9609 H   0  0  0  0  0  0  0  0  0  0  0  0
   -6.5238   11.1582   -5.3900 H   0  0  0  0  0  0  0  0  0  0  0  0
   -4.7275   11.2169   -4.0529 H   0  0  0  0  0  0  0  0  0  0  0  0
   -3.9901   12.8007   -3.7921 H   0  0  0  0  0  0  0  0  0  0  0  0
   -2.3613   11.0685   -3.8962 H   0  0  0  0  0  0  0  0  0  0  0  0
   -0.9160   12.2484   -5.7489 H   0  0  0  0  0  0  0  0  0  0  0  0
   -2.1521   13.5059   -5.2012 H   0  0  0  0  0  0  0  0  0  0  0  0
   -4.6220   12.9834   -7.7974 H   0  0  0  0  0  0  0  0  0  0  0  0
   -3.8874   14.1690   -6.7028 H   0  0  0  0  0  0  0  0  0  0  0  0
   -2.1947   10.4601   -7.8803 H   0  0  0  0  0  0  0  0  0  0  0  0
   -3.9570   10.6862   -7.5139 H   0  0  0  0  0  0  0  0  0  0  0  0
   -3.7856    8.5178   -6.3593 H   0  0  0  0  0  0  0  0  0  0  0  0
   -4.7079    9.6772   -5.3286 H   0  0  0  0  0  0  0  0  0  0  0  0
   -4.9578    9.0812   -3.1569 H   0  0  0  0  0  0  0  0  0  0  0  0
   -4.1815    7.8987   -1.0929 H   0  0  0  0  0  0  0  0  0  0  0  0
   -1.5078    7.8414   -5.1870 H   0  0  0  0  0  0  0  0  0  0  0  0
   -0.0727    5.9420   -1.6997 H   0  0  0  0  0  0  0  0  0  0  0  0
   -0.5033    5.9006    1.2354 H   0  0  0  0  0  0  0  0  0  0  0  0
   -2.6713    3.8721    0.4965 H   0  0  0  0  0  0  0  0  0  0  0  0
   -2.8274    1.3964    0.5984 H   0  0  0  0  0  0  0  0  0  0  0  0
   -0.7641    0.0208    0.6458 H   0  0  0  0  0  0  0  0  0  0  0  0
    1.4607    1.1072    0.5535 H   0  0  0  0  0  0  0  0  0  0  0  0
    1.9744    7.4030    0.2502 H   0  0  0  0  0  0  0  0  0  0  0  0
    4.4041    6.8931    0.2323 H   0  0  0  0  0  0  0  0  0  0  0  0
    5.1822    4.5400    0.3290 H   0  0  0  0  0  0  0  0  0  0  0  0
    3.5406    2.6880    0.4453 H   0  0  0  0  0  0  0  0  0  0  0  0
   -0.9114   12.4458   -8.2119 H   0  0  0  0  0  0  0  0  0  0  0  0
   -1.6665   14.0450   -7.9463 H   0  0  0  0  0  0  0  0  0  0  0  0
   -2.4025   12.8938   -9.1277 H   0  0  0  0  0  0  0  0  0  0  0  0
   -6.3680   13.4490   -4.3410 H   0  0  0  0  0  0  0  0  0  0  0  0
   -6.3157   14.2204   -5.9716 H   0  0  0  0  0  0  0  0  0  0  0  0
   -5.0100   14.5083   -4.7949 H   0  0  0  0  0  0  0  0  0  0  0  0
   -1.8086    9.8373   -5.8043 H   0  0  0  0  0  0  0  0  0  0  0  0
  1  2  1  0  0  0  0
  1 36  1  0  0  0  0
  1 37  1  0  0  0  0
  1 38  1  0  0  0  0
  2  7  1  0  0  0  0
  2  3  1  0  0  0  0
  2 34  1  0  0  0  0
  3  4  1  0  0  0  0
  3 39  1  0  0  0  0
  3 40  1  0  0  0  0
  4  5  1  0  0  0  0
  4 35  1  0  0  0  0
  4 41  1  1  0  0  0
  5  6  1  0  0  0  0
  5 42  1  0  0  0  0
  5 43  1  0  0  0  0
  6  7  1  0  0  0  0
  6  8  1  0  0  0  0
  6 33  1  6  0  0  0
  7 44  1  0  0  0  0
  7 45  1  0  0  0  0
  8 35  1  0  0  0  0
  8 46  1  0  0  0  0
  8 47  1  0  0  0  0
  9 10  1  0  0  0  0
  9 35  1  0  0  0  0
  9 48  1  0  0  0  0
  9 49  1  0  0  0  0
 10 16  1  0  0  0  0
 10 11  2  0  0  0  0
 11 12  1  0  0  0  0
 11 50  1  0  0  0  0
 12 13  2  0  0  0  0
 12 51  1  0  0  0  0
 13 14  1  0  0  0  0
 13 17  1  0  0  0  0
 14 15  2  0  0  0  0
 14 16  1  0  0  0  0
 16 52  1  0  0  0  0
 17 18  2  0  0  0  0
 17 19  1  0  0  0  0
 19 20  1  0  0  0  0
 19 53  1  0  0  0  0
 20 28  1  0  0  0  0
 20 21  1  0  0  0  0
 20 54  1  0  0  0  0
 21 26  2  0  0  0  0
 21 22  1  0  0  0  0
 22 23  2  0  0  0  0
 22 55  1  0  0  0  0
 23 24  1  0  0  0  0
 23 56  1  0  0  0  0
 24 25  2  0  0  0  0
 24 57  1  0  0  0  0
 25 26  1  0  0  0  0
 25 58  1  0  0  0  0
 26 27  1  0  0  0  0
 27 32  2  0  0  0  0
 27 28  1  0  0  0  0
 28 29  2  0  0  0  0
 29 30  1  0  0  0  0
 29 59  1  0  0  0  0
 30 31  2  0  0  0  0
 30 60  1  0  0  0  0
 31 32  1  0  0  0  0
 31 61  1  0  0  0  0
 32 62  1  0  0  0  0
 33 63  1  0  0  0  0
 33 64  1  0  0  0  0
 33 65  1  0  0  0  0
 34 66  1  0  0  0  0
 34 67  1  0  0  0  0
 34 68  1  0  0  0  0
 35 69  1  1  0  0  0
M  CHG  1  35   1
M  END
>  <Name>
ZINC14974486

>  <reference>
BDB50241104

>  <quality>
0.681

>  <status>
decoy

$$$$
