ZINC28537122
 OpenBabel12132115083D

 57 61  0  0  1  0  0  0  0  0999 V2000
   -3.5445    5.0721   -2.3612 C   0  0  0  0  0  0  0  0  0  0  0  0
   -2.3979    5.6076   -1.6153 N   0  3  2  0  0  0  0  0  0  0  0  0
   -1.1328    5.1760   -2.2158 C   0  0  0  0  0  0  0  0  0  0  0  0
    0.0409    5.8158   -1.4628 C   0  0  0  0  0  0  0  0  0  0  0  0
   -0.0446    5.3572   -0.0015 C   0  0  1  0  0  0  0  0  0  0  0  0
    1.1383    5.8732    0.7998 C   0  0  0  0  0  0  0  0  0  0  0  0
    1.0517    7.3612    1.0150 C   0  0  0  0  0  0  0  0  0  0  0  0
   -0.0704    8.0473    0.8482 C   0  0  0  0  0  0  0  0  0  0  0  0
   -1.3601    7.4223    0.3928 C   0  0  0  0  0  0  0  0  0  0  0  0
   -1.3460    5.9065    0.5963 C   0  0  1  0  0  0  0  0  0  0  0  0
   -2.5069    5.2967   -0.1965 C   0  0  2  0  0  0  0  0  0  0  0  0
   -2.5984    3.8069    0.0737 C   0  0  0  0  0  0  0  0  0  0  0  0
   -1.2501    3.1397    0.0331 C   0  0  0  0  0  0  0  0  0  0  0  0
   -0.0702    3.8497    0.0159 C   0  0  0  0  0  0  0  0  0  0  0  0
    1.1457    3.1755    0.0015 C   0  0  0  0  0  0  0  0  0  0  0  0
    1.1768    1.7861    0.0004 C   0  0  0  0  0  0  0  0  0  0  0  0
   -0.0126    1.0758    0.0080 C   0  0  0  0  0  0  0  0  0  0  0  0
   -1.2160    1.7508    0.0173 C   0  0  0  0  0  0  0  0  0  0  0  0
    2.3669    1.1281   -0.0076 O   0  0  0  0  0  0  0  0  0  0  0  0
    2.3186   -0.3001   -0.0077 C   0  0  0  0  0  0  0  0  0  0  0  0
    2.3096    3.8787   -0.0111 O   0  0  0  0  0  0  0  0  0  0  0  0
   -0.0691    9.5416    1.1116 C   0  0  2  0  0  0  0  0  0  0  0  0
    1.2713   10.0686    0.8284 N   0  0  0  0  0  0  0  0  0  0  0  0
    2.3762    9.3518    1.3210 N   0  0  0  0  0  0  0  0  0  0  0  0
    2.2842    8.0610    1.4231 C   0  0  0  0  0  0  0  0  0  0  0  0
    3.4478    7.2700    1.9632 C   0  0  0  0  0  0  0  0  0  0  0  0
    4.4960    8.1404    2.2809 F   0  0  0  0  0  0  0  0  0  0  0  0
    3.0492    6.5806    3.1134 F   0  0  0  0  0  0  0  0  0  0  0  0
    3.8783    6.3548    0.9966 F   0  0  0  0  0  0  0  0  0  0  0  0
   -0.4252    9.8048    2.5761 C   0  0  0  0  0  0  0  0  0  0  0  0
   -0.4060   11.1822    2.8204 F   0  0  0  0  0  0  0  0  0  0  0  0
   -1.7029    9.3016    2.8431 F   0  0  0  0  0  0  0  0  0  0  0  0
    0.5079    9.1713    3.4039 F   0  0  0  0  0  0  0  0  0  0  0  0
   -4.4681    5.5135   -1.9585 H   0  0  0  0  0  0  0  0  0  0  0  0
   -3.5783    3.9810   -2.2260 H   0  0  0  0  0  0  0  0  0  0  0  0
   -3.4487    5.3143   -3.4299 H   0  0  0  0  0  0  0  0  0  0  0  0
   -2.4072    6.6354   -1.6819 H   0  0  0  0  0  0  0  0  0  0  0  0
   -1.1025    5.4858   -3.2708 H   0  0  0  0  0  0  0  0  0  0  0  0
   -1.0531    4.0806   -2.1544 H   0  0  0  0  0  0  0  0  0  0  0  0
    0.9917    5.4796   -1.9020 H   0  0  0  0  0  0  0  0  0  0  0  0
   -0.0377    6.9119   -1.5125 H   0  0  0  0  0  0  0  0  0  0  0  0
    1.1614    5.3681    1.7767 H   0  0  0  0  0  0  0  0  0  0  0  0
    2.0695    5.6401    0.2627 H   0  0  0  0  0  0  0  0  0  0  0  0
   -2.1940    7.8560    0.9642 H   0  0  0  0  0  0  0  0  0  0  0  0
   -1.5130    7.6422   -0.6741 H   0  0  0  0  0  0  0  0  0  0  0  0
   -1.4300    5.6648    1.6661 H   0  0  0  0  0  0  0  0  0  0  0  0
   -3.4499    5.7495    0.1437 H   0  0  0  0  0  0  0  0  0  0  0  0
   -3.0481    3.6477    1.0649 H   0  0  0  0  0  0  0  0  0  0  0  0
   -3.2513    3.3428   -0.6801 H   0  0  0  0  0  0  0  0  0  0  0  0
    0.0023   -0.0241    0.0066 H   0  0  0  0  0  0  0  0  0  0  0  0
   -2.1583    1.1833    0.0122 H   0  0  0  0  0  0  0  0  0  0  0  0
    1.7336   -0.5897   -0.8931 H   0  0  0  0  0  0  0  0  0  0  0  0
    1.7453   -0.5902    0.8851 H   0  0  0  0  0  0  0  0  0  0  0  0
    3.3180   -0.7596   -0.0144 H   0  0  0  0  0  0  0  0  0  0  0  0
    2.2638    4.4637    0.7863 H   0  0  0  0  0  0  0  0  0  0  0  0
   -0.8105   10.0366    0.4672 H   0  0  0  0  0  0  0  0  0  0  0  0
    1.3984   10.9352    0.2865 H   0  0  0  0  0  0  0  0  0  0  0  0
  1  2  1  0  0  0  0
  1 34  1  0  0  0  0
  1 35  1  0  0  0  0
  1 36  1  0  0  0  0
  2 11  1  0  0  0  0
  2  3  1  0  0  0  0
  2 37  1  6  0  0  0
  3  4  1  0  0  0  0
  3 38  1  0  0  0  0
  3 39  1  0  0  0  0
  4  5  1  0  0  0  0
  4 40  1  0  0  0  0
  4 41  1  0  0  0  0
  5 10  1  0  0  0  0
  5 14  1  1  0  0  0
  5  6  1  0  0  0  0
  6  7  1  0  0  0  0
  6 42  1  0  0  0  0
  6 43  1  0  0  0  0
  7 25  1  0  0  0  0
  7  8  2  0  0  0  0
  8  9  1  0  0  0  0
  8 22  1  0  0  0  0
  9 10  1  0  0  0  0
  9 44  1  0  0  0  0
  9 45  1  0  0  0  0
 10 11  1  0  0  0  0
 10 46  1  1  0  0  0
 11 12  1  0  0  0  0
 11 47  1  1  0  0  0
 12 13  1  0  0  0  0
 12 48  1  0  0  0  0
 12 49  1  0  0  0  0
 13 18  2  0  0  0  0
 13 14  1  0  0  0  0
 14 15  2  0  0  0  0
 15 16  1  0  0  0  0
 15 21  1  0  0  0  0
 16 17  2  0  0  0  0
 16 19  1  0  0  0  0
 17 18  1  0  0  0  0
 17 50  1  0  0  0  0
 18 51  1  0  0  0  0
 19 20  1  0  0  0  0
 20 52  1  0  0  0  0
 20 53  1  0  0  0  0
 20 54  1  0  0  0  0
 21 55  1  0  0  0  0
 22 23  1  0  0  0  0
 22 30  1  0  0  0  0
 22 56  1  6  0  0  0
 23 24  1  0  0  0  0
 23 57  1  0  0  0  0
 24 25  2  0  0  0  0
 25 26  1  0  0  0  0
 26 27  1  0  0  0  0
 26 28  1  0  0  0  0
 26 29  1  0  0  0  0
 30 31  1  0  0  0  0
 30 32  1  0  0  0  0
 30 33  1  0  0  0  0
M  CHG  1   2   1
M  END
>  <Name>
ZINC28537122

>  <reference>
BDB50241104

>  <quality>
0.733

>  <status>
decoy

$$$$
