ZINC14690834
 OpenBabel12132115083D

 84 88  0  0  1  0  0  0  0  0999 V2000
    3.7524   -5.9512  -11.8528 C   0  0  0  0  0  0  0  0  0  0  0  0
    4.1446   -4.4783  -11.7467 C   0  0  0  0  0  0  0  0  0  0  0  0
    5.6414   -4.3207  -12.0162 C   0  0  2  0  0  0  0  0  0  0  0  0
    6.4753   -4.7587  -10.8178 C   0  0  0  0  0  0  0  0  0  0  0  0
    6.0868   -3.9442   -9.5880 C   0  0  0  0  0  0  0  0  0  0  0  0
    4.6138   -4.1840   -9.2378 C   0  0  2  0  0  0  0  0  0  0  0  0
    3.7324   -3.8491  -10.4337 C   0  0  2  0  0  0  0  0  0  0  0  0
    2.2812   -4.1632  -10.0711 C   0  0  0  0  0  0  0  0  0  0  0  0
    1.9116   -3.3579   -8.8487 C   0  0  0  0  0  0  0  0  0  0  0  0
    2.7747   -2.9761   -7.9474 C   0  0  0  0  0  0  0  0  0  0  0  0
    4.2442   -3.2654   -8.0791 C   0  0  1  0  0  0  0  0  0  0  0  0
    4.7642   -3.8083   -6.7486 C   0  0  0  0  0  0  0  0  0  0  0  0
    4.5666   -2.7065   -5.7053 C   0  0  0  0  0  0  0  0  0  0  0  0
    3.0820   -2.4449   -5.4648 C   0  0  2  0  0  0  0  0  0  0  0  0
    2.3077   -2.1698   -6.7626 C   0  0  1  0  0  0  0  0  0  0  0  0
    2.5394   -0.6664   -7.0324 C   0  0  0  0  0  0  0  0  0  0  0  0
    2.4910   -0.0373   -5.6231 C   0  0  0  0  0  0  0  0  0  0  0  0
    3.0043   -1.1202   -4.6610 C   0  0  1  0  0  0  0  0  0  0  0  0
    2.0621   -1.2699   -3.4666 C   0  0  1  0  0  0  0  0  0  0  0  0
    2.1677   -0.0304   -2.5728 C   0  0  0  0  0  0  0  0  0  0  0  0
    1.1637   -0.1564   -1.4228 C   0  0  1  0  0  0  0  0  0  0  0  0
   -0.2422   -0.3380   -2.0009 C   0  0  1  0  0  0  0  0  0  0  0  0
   -0.2632   -1.4899   -2.8464 O   0  0  0  0  0  0  0  0  0  0  0  0
    0.6215   -1.4082   -3.9657 C   0  0  0  0  0  0  0  0  0  0  0  0
   -1.2432   -0.5250   -0.8589 C   0  0  0  0  0  0  0  0  0  0  0  0
   -2.6659   -0.5181   -1.4216 C   0  0  0  0  0  0  0  0  0  0  0  0
   -1.0873    0.6165    0.1479 C   0  0  0  0  0  0  0  0  0  0  0  0
   -0.9947   -1.7722   -0.2072 O   0  0  0  0  0  0  0  0  0  0  0  0
    1.4992   -1.2886   -0.6181 O   0  0  0  0  0  0  0  0  0  0  0  0
    0.8149   -2.4089   -6.4949 C   0  0  0  0  0  0  0  0  0  0  0  0
    2.4394   -3.5928   -4.6716 C   0  0  0  0  0  0  0  0  0  0  0  0
    4.4368   -5.6332   -8.7885 C   0  0  0  0  0  0  0  0  0  0  0  0
    5.9224   -2.9505  -12.3226 O   0  0  0  0  0  0  0  0  0  0  0  0
    3.4117   -3.7295  -12.8868 C   0  0  0  0  0  0  0  0  0  0  0  0
    2.6607   -6.0203  -11.7370 H   0  0  0  0  0  0  0  0  0  0  0  0
    4.2286   -6.4894  -11.0200 H   0  0  0  0  0  0  0  0  0  0  0  0
    4.0666   -6.3759  -12.8177 H   0  0  0  0  0  0  0  0  0  0  0  0
    5.9092   -4.9646  -12.8669 H   0  0  0  0  0  0  0  0  0  0  0  0
    7.5419   -4.6025  -11.0367 H   0  0  0  0  0  0  0  0  0  0  0  0
    6.2981   -5.8261  -10.6195 H   0  0  0  0  0  0  0  0  0  0  0  0
    6.7169   -4.2441   -8.7377 H   0  0  0  0  0  0  0  0  0  0  0  0
    6.2428   -2.8748   -9.7931 H   0  0  0  0  0  0  0  0  0  0  0  0
    3.8580   -2.7743  -10.6315 H   0  0  0  0  0  0  0  0  0  0  0  0
    1.6231   -3.8866  -10.9080 H   0  0  0  0  0  0  0  0  0  0  0  0
    2.1783   -5.2360   -9.8509 H   0  0  0  0  0  0  0  0  0  0  0  0
    0.8570   -3.0776   -8.7102 H   0  0  0  0  0  0  0  0  0  0  0  0
    4.7354   -2.3125   -8.3256 H   0  0  0  0  0  0  0  0  0  0  0  0
    5.8338   -4.0496   -6.8362 H   0  0  0  0  0  0  0  0  0  0  0  0
    4.1894   -4.7007   -6.4603 H   0  0  0  0  0  0  0  0  0  0  0  0
    5.0386   -3.0125   -4.7600 H   0  0  0  0  0  0  0  0  0  0  0  0
    5.0451   -1.7809   -6.0579 H   0  0  0  0  0  0  0  0  0  0  0  0
    1.7288   -0.2619   -7.6563 H   0  0  0  0  0  0  0  0  0  0  0  0
    3.5300   -0.5096   -7.4841 H   0  0  0  0  0  0  0  0  0  0  0  0
    3.1499    0.8426   -5.5824 H   0  0  0  0  0  0  0  0  0  0  0  0
    1.4555    0.2310   -5.3665 H   0  0  0  0  0  0  0  0  0  0  0  0
    3.9930   -0.8488   -4.2626 H   0  0  0  0  0  0  0  0  0  0  0  0
    2.3424   -2.1652   -2.8923 H   0  0  0  0  0  0  0  0  0  0  0  0
    3.1864    0.0429   -2.1644 H   0  0  0  0  0  0  0  0  0  0  0  0
    1.9395    0.8699   -3.1622 H   0  0  0  0  0  0  0  0  0  0  0  0
    1.1945    0.7520   -0.8032 H   0  0  0  0  0  0  0  0  0  0  0  0
   -0.5164    0.5521   -2.5861 H   0  0  0  0  0  0  0  0  0  0  0  0
    0.5286   -2.3205   -4.5731 H   0  0  0  0  0  0  0  0  0  0  0  0
    0.3592   -0.5320   -4.5768 H   0  0  0  0  0  0  0  0  0  0  0  0
   -2.7791   -1.3386   -2.1454 H   0  0  0  0  0  0  0  0  0  0  0  0
   -2.8583    0.4417   -1.9233 H   0  0  0  0  0  0  0  0  0  0  0  0
   -3.3861   -0.6525   -0.6011 H   0  0  0  0  0  0  0  0  0  0  0  0
   -1.2786    1.5771   -0.3528 H   0  0  0  0  0  0  0  0  0  0  0  0
   -0.0647    0.6122    0.5533 H   0  0  0  0  0  0  0  0  0  0  0  0
   -1.8067    0.4827    0.9692 H   0  0  0  0  0  0  0  0  0  0  0  0
   -0.0743   -1.7775    0.1575 H   0  0  0  0  0  0  0  0  0  0  0  0
    2.4104   -1.1733   -0.2486 H   0  0  0  0  0  0  0  0  0  0  0  0
    0.6546   -3.4790   -6.2970 H   0  0  0  0  0  0  0  0  0  0  0  0
    0.2410   -2.1171   -7.3868 H   0  0  0  0  0  0  0  0  0  0  0  0
    0.4866   -1.8155   -5.6288 H   0  0  0  0  0  0  0  0  0  0  0  0
    2.9569   -3.6893   -3.7057 H   0  0  0  0  0  0  0  0  0  0  0  0
    2.5608   -4.5272   -5.2392 H   0  0  0  0  0  0  0  0  0  0  0  0
    1.3710   -3.3898   -4.5066 H   0  0  0  0  0  0  0  0  0  0  0  0
    5.0592   -5.8253   -7.9021 H   0  0  0  0  0  0  0  0  0  0  0  0
    4.7345   -6.3124   -9.6010 H   0  0  0  0  0  0  0  0  0  0  0  0
    3.3808   -5.8099   -8.5361 H   0  0  0  0  0  0  0  0  0  0  0  0
    5.6639   -2.3782  -11.5572 H   0  0  0  0  0  0  0  0  0  0  0  0
    2.3216   -3.8241  -12.7738 H   0  0  0  0  0  0  0  0  0  0  0  0
    3.7227   -4.1183  -13.8677 H   0  0  0  0  0  0  0  0  0  0  0  0
    3.6786   -2.6638  -12.8317 H   0  0  0  0  0  0  0  0  0  0  0  0
  1  2  1  0  0  0  0
  1 35  1  0  0  0  0
  1 36  1  0  0  0  0
  1 37  1  0  0  0  0
  2  7  1  0  0  0  0
  2  3  1  0  0  0  0
  2 34  1  0  0  0  0
  3  4  1  0  0  0  0
  3 33  1  0  0  0  0
  3 38  1  6  0  0  0
  4  5  1  0  0  0  0
  4 39  1  0  0  0  0
  4 40  1  0  0  0  0
  5  6  1  0  0  0  0
  5 41  1  0  0  0  0
  5 42  1  0  0  0  0
  6 11  1  0  0  0  0
  6  7  1  0  0  0  0
  6 32  1  1  0  0  0
  7  8  1  0  0  0  0
  7 43  1  6  0  0  0
  8  9  1  0  0  0  0
  8 44  1  0  0  0  0
  8 45  1  0  0  0  0
  9 10  2  0  0  0  0
  9 46  1  0  0  0  0
 10 15  1  0  0  0  0
 10 11  1  0  0  0  0
 11 12  1  0  0  0  0
 11 47  1  6  0  0  0
 12 13  1  0  0  0  0
 12 48  1  0  0  0  0
 12 49  1  0  0  0  0
 13 14  1  0  0  0  0
 13 50  1  0  0  0  0
 13 51  1  0  0  0  0
 14 18  1  0  0  0  0
 14 15  1  0  0  0  0
 14 31  1  1  0  0  0
 15 16  1  0  0  0  0
 15 30  1  1  0  0  0
 16 17  1  0  0  0  0
 16 52  1  0  0  0  0
 16 53  1  0  0  0  0
 17 18  1  0  0  0  0
 17 54  1  0  0  0  0
 17 55  1  0  0  0  0
 18 19  1  0  0  0  0
 18 56  1  1  0  0  0
 19 24  1  0  0  0  0
 19 20  1  0  0  0  0
 19 57  1  1  0  0  0
 20 21  1  0  0  0  0
 20 58  1  0  0  0  0
 20 59  1  0  0  0  0
 21 22  1  0  0  0  0
 21 29  1  0  0  0  0
 21 60  1  1  0  0  0
 22 23  1  0  0  0  0
 22 25  1  0  0  0  0
 22 61  1  6  0  0  0
 23 24  1  0  0  0  0
 24 62  1  0  0  0  0
 24 63  1  0  0  0  0
 25 26  1  0  0  0  0
 25 27  1  0  0  0  0
 25 28  1  0  0  0  0
 26 64  1  0  0  0  0
 26 65  1  0  0  0  0
 26 66  1  0  0  0  0
 27 67  1  0  0  0  0
 27 68  1  0  0  0  0
 27 69  1  0  0  0  0
 28 70  1  0  0  0  0
 29 71  1  0  0  0  0
 30 72  1  0  0  0  0
 30 73  1  0  0  0  0
 30 74  1  0  0  0  0
 31 75  1  0  0  0  0
 31 76  1  0  0  0  0
 31 77  1  0  0  0  0
 32 78  1  0  0  0  0
 32 79  1  0  0  0  0
 32 80  1  0  0  0  0
 33 81  1  0  0  0  0
 34 82  1  0  0  0  0
 34 83  1  0  0  0  0
 34 84  1  0  0  0  0
M  END
>  <Name>
ZINC14690834

>  <reference>
BDB50241104

>  <quality>
0.695

>  <status>
decoy

$$$$
