ZINC14969940
 OpenBabel12132115083D

 81 85  0  0  1  0  0  0  0  0999 V2000
    0.8452    0.6359   -0.0580 C   0  0  0  0  0  0  0  0  0  0  0  0
   -0.5177   -0.0261    0.1546 C   0  0  0  0  0  0  0  0  0  0  0  0
   -1.4048    0.2296   -1.0654 C   0  0  0  0  0  0  0  0  0  0  0  0
   -1.1720    0.5541    1.3820 C   0  0  0  0  0  0  0  0  0  0  0  0
   -1.9952    1.5210    1.2211 N   0  0  0  0  0  0  0  0  0  0  0  0
   -2.6738    2.1743    2.3311 C   0  0  1  0  0  0  0  0  0  0  0  0
   -4.1357    2.4679    1.9948 C   0  0  0  0  0  0  0  0  0  0  0  0
   -4.8615    2.9017    3.2325 C   0  0  0  0  0  0  0  0  0  0  0  0
   -4.4428    2.7410    4.4523 C   0  0  0  0  0  0  0  0  0  0  0  0
   -5.2896    3.2272    5.5905 C   0  0  0  0  0  0  0  0  0  0  0  0
   -4.4468    3.8658    6.6986 C   0  0  2  0  0  0  0  0  0  0  0  0
   -4.2072    2.7636    7.7652 C   0  0  1  0  0  0  0  0  0  0  0  0
   -3.0593    1.9109    7.2733 C   0  0  0  0  0  0  0  0  0  0  0  0
   -3.2975    1.1729    5.9763 C   0  0  0  0  0  0  0  0  0  0  0  0
   -3.1082    2.0708    4.7660 C   0  0  1  0  0  0  0  0  0  0  0  0
   -2.6590    1.2515    3.5598 C   0  0  2  0  0  0  0  0  0  0  0  0
   -1.2257    0.7478    3.7522 C   0  0  0  0  0  0  0  0  0  0  0  0
   -0.8577    0.0197    2.5735 O   0  0  0  0  0  0  0  0  0  0  0  0
   -3.6139    0.0760    3.3422 C   0  0  0  0  0  0  0  0  0  0  0  0
   -3.8143    3.4544    9.0692 C   0  0  2  0  0  0  0  0  0  0  0  0
   -3.6067    2.5085   10.2595 C   0  0  0  0  0  0  0  0  0  0  0  0
   -3.7502    3.4491   11.4851 C   0  0  2  0  0  0  0  0  0  0  0  0
   -4.5940    4.6566   11.0133 C   0  0  1  0  0  0  0  0  0  0  0  0
   -4.9763    4.3511    9.5639 C   0  0  1  0  0  0  0  0  0  0  0  0
   -4.9866    5.5679    8.6435 C   0  0  0  0  0  0  0  0  0  0  0  0
   -5.2375    5.0250    7.2518 C   0  0  0  0  0  0  0  0  0  0  0  0
   -6.0930    5.5333    6.5676 O   0  0  0  0  0  0  0  0  0  0  0  0
   -6.3101    3.6051    9.4897 C   0  0  0  0  0  0  0  0  0  0  0  0
   -5.8514    4.7917   11.8745 C   0  0  2  0  0  0  0  0  0  0  0  0
   -6.6448    6.0218   11.4292 C   0  0  0  0  0  0  0  0  0  0  0  0
   -6.5431    4.4913   14.1753 C   0  0  0  0  0  0  0  0  0  0  0  0
   -2.4618    3.8905   11.9178 O   0  0  0  0  0  0  0  0  0  0  0  0
   -2.5586    4.3002    8.8491 C   0  0  0  0  0  0  0  0  0  0  0  0
   -5.4564    4.9455   13.2873 N   0  3  0  0  0  0  0  0  0  0  0  0
    0.7108    1.7194   -0.1921 H   0  0  0  0  0  0  0  0  0  0  0  0
    1.3238    0.2128   -0.9535 H   0  0  0  0  0  0  0  0  0  0  0  0
    1.4835    0.4524    0.8189 H   0  0  0  0  0  0  0  0  0  0  0  0
   -0.3822   -1.1094    0.2887 H   0  0  0  0  0  0  0  0  0  0  0  0
   -0.9282   -0.1938   -1.9618 H   0  0  0  0  0  0  0  0  0  0  0  0
   -1.5412    1.3127   -1.2003 H   0  0  0  0  0  0  0  0  0  0  0  0
   -2.3849   -0.2461   -0.9132 H   0  0  0  0  0  0  0  0  0  0  0  0
   -2.1449    3.1176    2.5324 H   0  0  0  0  0  0  0  0  0  0  0  0
   -4.1847    3.2690    1.2426 H   0  0  0  0  0  0  0  0  0  0  0  0
   -4.6095    1.5602    1.5927 H   0  0  0  0  0  0  0  0  0  0  0  0
   -5.8330    3.3993    3.0965 H   0  0  0  0  0  0  0  0  0  0  0  0
   -5.8524    2.3800    6.0095 H   0  0  0  0  0  0  0  0  0  0  0  0
   -6.0092    3.9686    5.2130 H   0  0  0  0  0  0  0  0  0  0  0  0
   -3.4748    4.2444    6.3496 H   0  0  0  0  0  0  0  0  0  0  0  0
   -5.1007    2.1433    7.9294 H   0  0  0  0  0  0  0  0  0  0  0  0
   -2.8105    1.1751    8.0522 H   0  0  0  0  0  0  0  0  0  0  0  0
   -2.1743    2.5527    7.1518 H   0  0  0  0  0  0  0  0  0  0  0  0
   -2.5973    0.3272    5.9095 H   0  0  0  0  0  0  0  0  0  0  0  0
   -4.3226    0.7741    5.9709 H   0  0  0  0  0  0  0  0  0  0  0  0
   -2.3372    2.8245    4.9840 H   0  0  0  0  0  0  0  0  0  0  0  0
   -1.1797    0.0837    4.6279 H   0  0  0  0  0  0  0  0  0  0  0  0
   -0.5473    1.6031    3.8870 H   0  0  0  0  0  0  0  0  0  0  0  0
   -3.2966   -0.4907    2.4544 H   0  0  0  0  0  0  0  0  0  0  0  0
   -4.6327    0.4596    3.1842 H   0  0  0  0  0  0  0  0  0  0  0  0
   -3.6002   -0.5818    4.2238 H   0  0  0  0  0  0  0  0  0  0  0  0
   -2.5965    2.0741   10.2307 H   0  0  0  0  0  0  0  0  0  0  0  0
   -4.3930    1.7395   10.2769 H   0  0  0  0  0  0  0  0  0  0  0  0
   -4.2290    2.9333   12.3305 H   0  0  0  0  0  0  0  0  0  0  0  0
   -4.0367    5.6013   11.0976 H   0  0  0  0  0  0  0  0  0  0  0  0
   -5.7995    6.2504    8.9322 H   0  0  0  0  0  0  0  0  0  0  0  0
   -4.0108    6.0745    8.6781 H   0  0  0  0  0  0  0  0  0  0  0  0
   -6.2492    2.7033   10.1166 H   0  0  0  0  0  0  0  0  0  0  0  0
   -6.4941    3.3071    8.4469 H   0  0  0  0  0  0  0  0  0  0  0  0
   -7.1262    4.2523    9.8434 H   0  0  0  0  0  0  0  0  0  0  0  0
   -6.4767    3.8939   11.7607 H   0  0  0  0  0  0  0  0  0  0  0  0
   -6.9343    5.9104   10.3739 H   0  0  0  0  0  0  0  0  0  0  0  0
   -6.0234    6.9220   11.5452 H   0  0  0  0  0  0  0  0  0  0  0  0
   -7.5490    6.1195   12.0480 H   0  0  0  0  0  0  0  0  0  0  0  0
   -6.7598    3.4329   13.9683 H   0  0  0  0  0  0  0  0  0  0  0  0
   -7.4441    5.0911   13.9791 H   0  0  0  0  0  0  0  0  0  0  0  0
   -6.2412    4.6090   15.2265 H   0  0  0  0  0  0  0  0  0  0  0  0
   -2.0180    4.3770   11.1786 H   0  0  0  0  0  0  0  0  0  0  0  0
   -2.7599    5.0592    8.0788 H   0  0  0  0  0  0  0  0  0  0  0  0
   -1.7352    3.6515    8.5157 H   0  0  0  0  0  0  0  0  0  0  0  0
   -2.2776    4.7967    9.7896 H   0  0  0  0  0  0  0  0  0  0  0  0
   -5.2512    5.9364   13.4795 H   0  0  0  0  0  0  0  0  0  0  0  0
   -4.6115    4.3850   13.4685 H   0  0  0  0  0  0  0  0  0  0  0  0
  1  2  1  0  0  0  0
  1 35  1  0  0  0  0
  1 36  1  0  0  0  0
  1 37  1  0  0  0  0
  2  3  1  0  0  0  0
  2  4  1  0  0  0  0
  2 38  1  0  0  0  0
  3 39  1  0  0  0  0
  3 40  1  0  0  0  0
  3 41  1  0  0  0  0
  4 18  1  0  0  0  0
  4  5  2  0  0  0  0
  5  6  1  0  0  0  0
  6 16  1  0  0  0  0
  6  7  1  0  0  0  0
  6 42  1  1  0  0  0
  7  8  1  0  0  0  0
  7 43  1  0  0  0  0
  7 44  1  0  0  0  0
  8  9  2  0  0  0  0
  8 45  1  0  0  0  0
  9 15  1  0  0  0  0
  9 10  1  0  0  0  0
 10 11  1  0  0  0  0
 10 46  1  0  0  0  0
 10 47  1  0  0  0  0
 11 26  1  0  0  0  0
 11 12  1  0  0  0  0
 11 48  1  6  0  0  0
 12 13  1  0  0  0  0
 12 20  1  0  0  0  0
 12 49  1  1  0  0  0
 13 14  1  0  0  0  0
 13 50  1  0  0  0  0
 13 51  1  0  0  0  0
 14 15  1  0  0  0  0
 14 52  1  0  0  0  0
 14 53  1  0  0  0  0
 15 16  1  0  0  0  0
 15 54  1  1  0  0  0
 16 17  1  0  0  0  0
 16 19  1  6  0  0  0
 17 18  1  0  0  0  0
 17 55  1  0  0  0  0
 17 56  1  0  0  0  0
 19 57  1  0  0  0  0
 19 58  1  0  0  0  0
 19 59  1  0  0  0  0
 20 24  1  0  0  0  0
 20 21  1  0  0  0  0
 20 33  1  6  0  0  0
 21 22  1  0  0  0  0
 21 60  1  0  0  0  0
 21 61  1  0  0  0  0
 22 23  1  0  0  0  0
 22 32  1  0  0  0  0
 22 62  1  1  0  0  0
 23 24  1  0  0  0  0
 23 29  1  0  0  0  0
 23 63  1  1  0  0  0
 24 25  1  0  0  0  0
 24 28  1  6  0  0  0
 25 26  1  0  0  0  0
 25 64  1  0  0  0  0
 25 65  1  0  0  0  0
 26 27  2  0  0  0  0
 28 66  1  0  0  0  0
 28 67  1  0  0  0  0
 28 68  1  0  0  0  0
 29 30  1  0  0  0  0
 29 34  1  0  0  0  0
 29 69  1  6  0  0  0
 30 70  1  0  0  0  0
 30 71  1  0  0  0  0
 30 72  1  0  0  0  0
 31 34  1  0  0  0  0
 31 73  1  0  0  0  0
 31 74  1  0  0  0  0
 31 75  1  0  0  0  0
 32 76  1  0  0  0  0
 33 77  1  0  0  0  0
 33 78  1  0  0  0  0
 33 79  1  0  0  0  0
 34 80  1  0  0  0  0
 34 81  1  0  0  0  0
M  CHG  1  34   1
M  END
>  <Name>
ZINC14969940

>  <reference>
BDB50241104

>  <quality>
0.760

>  <status>
decoy

$$$$
