ZINC16052720
 OpenBabel12132115083D

 70 77  0  0  1  0  0  0  0  0999 V2000
   -5.3150    1.7024    2.3638 C   0  0  0  0  0  0  0  0  0  0  0  0
   -4.0648    1.1788    1.6541 C   0  0  1  0  0  0  0  0  0  0  0  0
   -2.8947    2.0447    2.1065 C   0  0  1  0  0  0  0  0  0  0  0  0
   -1.5797    1.3933    1.6642 C   0  0  2  0  0  0  0  0  0  0  0  0
   -1.4914    0.0061    2.3099 C   0  0  0  0  0  0  0  0  0  0  0  0
   -2.6754   -0.8399    1.8560 C   0  0  1  0  0  0  0  0  0  0  0  0
   -3.9075   -0.1722    2.0276 O   0  0  0  0  0  0  0  0  0  0  0  0
   -2.4837   -1.2951    0.4804 N   0  0  0  0  0  0  0  0  0  0  0  0
   -1.7913   -2.3879    0.0484 C   0  0  0  0  0  0  0  0  0  0  0  0
   -1.8502   -2.4570   -1.3011 C   0  0  0  0  0  0  0  0  0  0  0  0
   -2.6144   -1.3658   -1.7655 C   0  0  0  0  0  0  0  0  0  0  0  0
   -3.0057   -0.6561   -0.6275 C   0  0  0  0  0  0  0  0  0  0  0  0
   -3.7958    0.4893   -0.7438 C   0  0  0  0  0  0  0  0  0  0  0  0
   -4.2970    1.3395    0.2186 N   0  0  0  0  0  0  0  0  0  0  0  0
   -5.0283    2.3200   -0.3938 C   0  0  0  0  0  0  0  0  0  0  0  0
   -5.0131    2.1375   -1.7295 C   0  0  0  0  0  0  0  0  0  0  0  0
   -4.2092    0.9485   -2.0031 C   0  0  0  0  0  0  0  0  0  0  0  0
   -3.8219    0.2663   -3.1571 C   0  0  0  0  0  0  0  0  0  0  0  0
   -3.0348   -0.8775   -3.0779 C   0  0  0  0  0  0  0  0  0  0  0  0
   -2.7884   -1.3687   -4.4402 C   0  0  0  0  0  0  0  0  0  0  0  0
   -2.1322   -2.3556   -4.7138 O   0  0  0  0  0  0  0  0  0  0  0  0
   -3.3903   -0.5743   -5.3416 N   0  0  0  0  0  0  0  0  0  0  0  0
   -4.0815    0.5033   -4.6249 C   0  0  0  0  0  0  0  0  0  0  0  0
   -5.7169    3.0243   -2.7239 C   0  0  0  0  0  0  0  0  0  0  0  0
   -6.7506    3.8721   -1.9723 C   0  0  0  0  0  0  0  0  0  0  0  0
   -6.0823    4.5260   -0.7596 C   0  0  0  0  0  0  0  0  0  0  0  0
   -5.7600    3.4541    0.2871 C   0  0  0  0  0  0  0  0  0  0  0  0
   -1.1963   -3.5371   -2.1266 C   0  0  0  0  0  0  0  0  0  0  0  0
   -0.1602   -4.2578   -1.2566 C   0  0  0  0  0  0  0  0  0  0  0  0
   -0.8030   -4.6525    0.0761 C   0  0  0  0  0  0  0  0  0  0  0  0
   -1.0614   -3.3925    0.9094 C   0  0  0  0  0  0  0  0  0  0  0  0
    0.7288    1.9948    1.2498 C   0  0  0  0  0  0  0  0  0  0  0  0
   -3.0060    3.3419    1.5175 O   0  0  0  0  0  0  0  0  0  0  0  0
   -3.0222    4.4112    2.4654 C   0  0  0  0  0  0  0  0  0  0  0  0
   -0.4461    2.2244    2.1116 N   0  3  0  0  0  0  0  0  0  0  0  0
   -5.1937    1.6373    3.4552 H   0  0  0  0  0  0  0  0  0  0  0  0
   -6.2022    1.1319    2.0516 H   0  0  0  0  0  0  0  0  0  0  0  0
   -5.4594    2.7573    2.0877 H   0  0  0  0  0  0  0  0  0  0  0  0
   -2.9084    2.1384    3.2024 H   0  0  0  0  0  0  0  0  0  0  0  0
   -1.5452    1.3032    0.5684 H   0  0  0  0  0  0  0  0  0  0  0  0
   -0.5541   -0.4819    2.0045 H   0  0  0  0  0  0  0  0  0  0  0  0
   -1.5126    0.1079    3.4050 H   0  0  0  0  0  0  0  0  0  0  0  0
   -2.7191   -1.7283    2.5031 H   0  0  0  0  0  0  0  0  0  0  0  0
   -3.3698   -0.7007   -6.3636 H   0  0  0  0  0  0  0  0  0  0  0  0
   -3.6694    1.4777   -4.9263 H   0  0  0  0  0  0  0  0  0  0  0  0
   -5.1618    0.4544   -4.8265 H   0  0  0  0  0  0  0  0  0  0  0  0
   -6.2260    2.4050   -3.4770 H   0  0  0  0  0  0  0  0  0  0  0  0
   -4.9851    3.6838   -3.2134 H   0  0  0  0  0  0  0  0  0  0  0  0
   -7.1413    4.6532   -2.6411 H   0  0  0  0  0  0  0  0  0  0  0  0
   -7.5771    3.2302   -1.6334 H   0  0  0  0  0  0  0  0  0  0  0  0
   -6.7628    5.2714   -0.3223 H   0  0  0  0  0  0  0  0  0  0  0  0
   -5.1519    5.0203   -1.0758 H   0  0  0  0  0  0  0  0  0  0  0  0
   -5.1230    3.8866    1.0727 H   0  0  0  0  0  0  0  0  0  0  0  0
   -6.6946    3.0779    0.7287 H   0  0  0  0  0  0  0  0  0  0  0  0
   -0.6965   -3.0863   -2.9967 H   0  0  0  0  0  0  0  0  0  0  0  0
   -1.9578   -4.2558   -2.4638 H   0  0  0  0  0  0  0  0  0  0  0  0
    0.1905   -5.1617   -1.7762 H   0  0  0  0  0  0  0  0  0  0  0  0
    0.6919   -3.5881   -1.0681 H   0  0  0  0  0  0  0  0  0  0  0  0
   -0.1267   -5.3231    0.6265 H   0  0  0  0  0  0  0  0  0  0  0  0
   -1.7561   -5.1675   -0.1144 H   0  0  0  0  0  0  0  0  0  0  0  0
   -1.6788   -3.6491    1.7829 H   0  0  0  0  0  0  0  0  0  0  0  0
   -0.1027   -2.9671    1.2408 H   0  0  0  0  0  0  0  0  0  0  0  0
    0.4714    2.2537    0.2121 H   0  0  0  0  0  0  0  0  0  0  0  0
    1.0108    0.9327    1.2994 H   0  0  0  0  0  0  0  0  0  0  0  0
    1.5695    2.6176    1.5895 H   0  0  0  0  0  0  0  0  0  0  0  0
   -2.0923    4.3503    3.0499 H   0  0  0  0  0  0  0  0  0  0  0  0
   -3.8712    4.2403    3.1436 H   0  0  0  0  0  0  0  0  0  0  0  0
   -3.1088    5.3894    1.9698 H   0  0  0  0  0  0  0  0  0  0  0  0
   -0.2075    1.9831    3.0841 H   0  0  0  0  0  0  0  0  0  0  0  0
   -0.7127    3.2183    2.0666 H   0  0  0  0  0  0  0  0  0  0  0  0
  1 36  1  0  0  0  0
  1 37  1  0  0  0  0
  1 38  1  0  0  0  0
  2  1  1  1  0  0  0
  2  7  1  0  0  0  0
  2 14  1  0  0  0  0
  2  3  1  0  0  0  0
  3  4  1  0  0  0  0
  3 33  1  0  0  0  0
  3 39  1  1  0  0  0
  4  5  1  0  0  0  0
  4 35  1  0  0  0  0
  4 40  1  6  0  0  0
  5  6  1  0  0  0  0
  5 41  1  0  0  0  0
  5 42  1  0  0  0  0
  6  7  1  0  0  0  0
  6  8  1  0  0  0  0
  6 43  1  1  0  0  0
  8 12  1  0  0  0  0
  8  9  1  0  0  0  0
  9 31  1  0  0  0  0
  9 10  2  0  0  0  0
 10 11  1  0  0  0  0
 10 28  1  0  0  0  0
 11 19  1  0  0  0  0
 11 12  2  0  0  0  0
 12 13  1  0  0  0  0
 13 17  2  0  0  0  0
 13 14  1  0  0  0  0
 14 15  1  0  0  0  0
 15 27  1  0  0  0  0
 15 16  2  0  0  0  0
 16 17  1  0  0  0  0
 16 24  1  0  0  0  0
 17 18  1  0  0  0  0
 18 23  1  0  0  0  0
 18 19  2  0  0  0  0
 19 20  1  0  0  0  0
 20 21  2  0  0  0  0
 20 22  1  0  0  0  0
 22 23  1  0  0  0  0
 22 44  1  0  0  0  0
 23 45  1  0  0  0  0
 23 46  1  0  0  0  0
 24 25  1  0  0  0  0
 24 47  1  0  0  0  0
 24 48  1  0  0  0  0
 25 26  1  0  0  0  0
 25 49  1  0  0  0  0
 25 50  1  0  0  0  0
 26 27  1  0  0  0  0
 26 51  1  0  0  0  0
 26 52  1  0  0  0  0
 27 53  1  0  0  0  0
 27 54  1  0  0  0  0
 28 29  1  0  0  0  0
 28 55  1  0  0  0  0
 28 56  1  0  0  0  0
 29 30  1  0  0  0  0
 29 57  1  0  0  0  0
 29 58  1  0  0  0  0
 30 31  1  0  0  0  0
 30 59  1  0  0  0  0
 30 60  1  0  0  0  0
 31 61  1  0  0  0  0
 31 62  1  0  0  0  0
 32 35  1  0  0  0  0
 32 63  1  0  0  0  0
 32 64  1  0  0  0  0
 32 65  1  0  0  0  0
 33 34  1  0  0  0  0
 34 66  1  0  0  0  0
 34 67  1  0  0  0  0
 34 68  1  0  0  0  0
 35 69  1  0  0  0  0
 35 70  1  0  0  0  0
M  CHG  1  35   1
M  END
>  <Name>
ZINC16052720

>  <reference>
BDB50241104

>  <quality>
0.694

>  <status>
decoy

$$$$
