BDB50263147
 OpenBabel12132115083D

 57 60  0  0  1  0  0  0  0  0999 V2000
    1.8620    0.3280   -2.7920 C   0  0  0  0  0  0  0  0  0  0  0  0
    1.0450   -0.6980   -2.3740 C   0  0  0  0  0  0  0  0  0  0  0  0
   -0.2240   -0.4870   -1.9660 N   0  0  0  0  0  0  0  0  0  0  0  0
   -0.6790    0.7810   -1.9430 C   0  0  0  0  0  0  0  0  0  0  0  0
    0.0650    1.8380   -2.3200 N   0  0  0  0  0  0  0  0  0  0  0  0
    1.3210    1.5870   -2.7440 C   0  0  0  0  0  0  0  0  0  0  0  0
   -1.9520    1.0890   -1.4650 N   0  0  0  0  0  0  0  0  0  0  0  0
   -3.0160    0.2920   -1.0270 C   0  0  0  0  0  0  0  0  0  0  0  0
   -3.1060   -1.0800   -1.2780 C   0  0  0  0  0  0  0  0  0  0  0  0
   -4.1570   -1.8460   -0.7600 C   0  0  0  0  0  0  0  0  0  0  0  0
   -5.1480   -1.2680    0.0380 C   0  0  0  0  0  0  0  0  0  0  0  0
   -5.0650    0.1040    0.2890 C   0  0  0  0  0  0  0  0  0  0  0  0
   -4.0160    0.8710   -0.2350 C   0  0  0  0  0  0  0  0  0  0  0  0
    1.4650   -2.0960   -2.3990 C   0  0  0  0  0  0  0  0  0  0  0  0
    1.2380   -3.0710   -1.4300 N   0  0  0  0  0  0  0  0  0  0  0  0
    1.7460   -4.2630   -1.9260 C   0  0  0  0  0  0  0  0  0  0  0  0
    2.3530   -4.0750   -3.0790 N   0  0  0  0  0  0  0  0  0  0  0  0
    2.1910   -2.7560   -3.3730 C   0  0  0  0  0  0  0  0  0  0  0  0
    0.6050   -2.8550   -0.1260 C   0  0  0  0  0  0  0  0  0  0  0  0
    1.6070   -2.9470    1.0270 C   0  0  0  0  0  0  0  0  0  0  0  0
   -0.6300   -3.7240    0.1130 C   0  0  0  0  0  0  0  0  0  0  0  0
    1.6320   -5.5950   -1.2780 C   0  0  0  0  0  0  0  0  0  0  0  0
   -6.1770   -2.0420    0.5790 N   0  0  0  0  0  0  0  0  0  0  0  0
    3.1160    0.1350   -3.2180 F   0  0  0  0  0  0  0  0  0  0  0  0
   -7.2700   -1.7230    1.4350 C   0  0  0  0  0  0  0  0  0  0  0  0
   -7.5680   -3.2250    1.5430 C   0  0  0  0  0  0  0  0  0  0  0  0
   -6.5070   -3.4220    0.4510 C   0  0  0  0  0  0  0  0  0  0  0  0
   -7.3580   -3.8920    2.8490 N   0  0  0  0  0  0  0  0  0  0  0  0
   -6.2950   -3.9320    3.7090 C   0  0  0  0  0  0  0  0  0  0  0  0
   -5.0290   -3.1880    3.3970 C   0  0  0  0  0  0  0  0  0  0  0  0
   -6.3960   -4.5930    4.7450 O   0  0  0  0  0  0  0  0  0  0  0  0
    1.8970    2.4530   -3.0500 H   0  0  0  0  0  0  0  0  0  0  0  0
   -2.0850    2.0910   -1.4460 H   0  0  0  0  0  0  0  0  0  0  0  0
   -2.3670   -1.5830   -1.8940 H   0  0  0  0  0  0  0  0  0  0  0  0
   -4.1850   -2.9090   -0.9860 H   0  0  0  0  0  0  0  0  0  0  0  0
   -5.8140    0.5950    0.9050 H   0  0  0  0  0  0  0  0  0  0  0  0
   -3.9820    1.9320    0.0020 H   0  0  0  0  0  0  0  0  0  0  0  0
    2.5890   -2.3410   -4.2900 H   0  0  0  0  0  0  0  0  0  0  0  0
    0.2500   -1.8230   -0.1100 H   0  0  0  0  0  0  0  0  0  0  0  0
    2.4720   -2.2990    0.8440 H   0  0  0  0  0  0  0  0  0  0  0  0
    1.9800   -3.9620    1.1780 H   0  0  0  0  0  0  0  0  0  0  0  0
    1.1400   -2.6260    1.9640 H   0  0  0  0  0  0  0  0  0  0  0  0
   -0.3680   -4.7550    0.3680 H   0  0  0  0  0  0  0  0  0  0  0  0
   -1.2790   -3.7450   -0.7690 H   0  0  0  0  0  0  0  0  0  0  0  0
   -1.2140   -3.3280    0.9510 H   0  0  0  0  0  0  0  0  0  0  0  0
    0.6030   -5.9620   -1.3290 H   0  0  0  0  0  0  0  0  0  0  0  0
    1.9610   -5.5810   -0.2380 H   0  0  0  0  0  0  0  0  0  0  0  0
    2.2610   -6.3210   -1.8040 H   0  0  0  0  0  0  0  0  0  0  0  0
   -6.9840   -1.2110    2.3560 H   0  0  0  0  0  0  0  0  0  0  0  0
   -8.0400   -1.1400    0.9180 H   0  0  0  0  0  0  0  0  0  0  0  0
   -8.5760   -3.4710    1.1850 H   0  0  0  0  0  0  0  0  0  0  0  0
   -6.9090   -3.6570   -0.5400 H   0  0  0  0  0  0  0  0  0  0  0  0
   -5.6870   -4.1050    0.6800 H   0  0  0  0  0  0  0  0  0  0  0  0
   -8.1280   -4.4420    3.2200 H   0  0  0  0  0  0  0  0  0  0  0  0
   -5.2160   -2.1180    3.3110 H   0  0  0  0  0  0  0  0  0  0  0  0
   -4.5640   -3.5750    2.4900 H   0  0  0  0  0  0  0  0  0  0  0  0
   -4.3200   -3.3330    4.2190 H   0  0  0  0  0  0  0  0  0  0  0  0
  1  2  1  0  0  0  0
  1  6  2  0  0  0  0
  1 24  1  0  0  0  0
  2  3  2  0  0  0  0
  2 14  1  0  0  0  0
  3  4  1  0  0  0  0
  4  5  2  0  0  0  0
  4  7  1  0  0  0  0
  5  6  1  0  0  0  0
  6 32  1  0  0  0  0
  7  8  1  0  0  0  0
  7 33  1  0  0  0  0
  8  9  1  0  0  0  0
  8 13  2  0  0  0  0
  9 10  2  0  0  0  0
  9 34  1  0  0  0  0
 10 11  1  0  0  0  0
 10 35  1  0  0  0  0
 11 12  2  0  0  0  0
 11 23  1  0  0  0  0
 12 13  1  0  0  0  0
 12 36  1  0  0  0  0
 13 37  1  0  0  0  0
 14 15  1  0  0  0  0
 14 18  2  0  0  0  0
 15 16  1  0  0  0  0
 15 19  1  0  0  0  0
 16 17  2  0  0  0  0
 16 22  1  0  0  0  0
 17 18  1  0  0  0  0
 18 38  1  0  0  0  0
 19 20  1  0  0  0  0
 19 21  1  0  0  0  0
 19 39  1  0  0  0  0
 20 40  1  0  0  0  0
 20 41  1  0  0  0  0
 20 42  1  0  0  0  0
 21 43  1  0  0  0  0
 21 44  1  0  0  0  0
 21 45  1  0  0  0  0
 22 46  1  0  0  0  0
 22 47  1  0  0  0  0
 22 48  1  0  0  0  0
 23 25  1  0  0  0  0
 23 27  1  0  0  0  0
 25 26  1  0  0  0  0
 25 49  1  0  0  0  0
 25 50  1  0  0  0  0
 26 27  1  0  0  0  0
 26 28  1  0  0  0  0
 26 51  1  0  0  0  0
 27 52  1  0  0  0  0
 27 53  1  0  0  0  0
 28 29  1  0  0  0  0
 28 54  1  0  0  0  0
 29 30  1  0  0  0  0
 29 31  2  0  0  0  0
 30 55  1  0  0  0  0
 30 56  1  0  0  0  0
 30 57  1  0  0  0  0
M  END
>  <Name>
BDB50263147

>  <Target>
CDK2

>  <IC50_in_nM>
0.5

>  <Kd_from_ITC>
false

>  <Uniprot_ID>
P24941

>  <source_organism>
Homo sapiens

$$$$
