BDB50241104
 OpenBabel12132115083D

 62 69  0  0  1  0  0  0  0  0999 V2000
    0.6080   -0.1780   -1.3360 C   0  0  2  0  0  0  0  0  0  0  0  0
    1.9970    0.4090   -1.6380 C   0  0  1  0  0  0  0  0  0  0  0  0
    1.6520    1.7590   -2.2380 C   0  0  1  0  0  0  0  0  0  0  0  0
    0.7680    2.5570   -1.2710 C   0  0  0  0  0  0  0  0  0  0  0  0
   -0.4860    1.8670   -0.3910 C   0  0  1  0  0  0  0  0  0  0  0  0
   -0.3940    0.9140   -1.4400 O   0  0  0  0  0  0  0  0  0  0  0  0
    2.4310   -4.5680    0.9410 C   0  0  0  0  0  0  0  0  0  0  0  0
    2.9110   -3.9450   -0.2040 C   0  0  0  0  0  0  0  0  0  0  0  0
    2.3230   -2.7690   -0.6810 C   0  0  0  0  0  0  0  0  0  0  0  0
    1.3430   -4.0350    1.6350 C   0  0  0  0  0  0  0  0  0  0  0  0
    0.7340   -2.8450    1.1810 C   0  0  0  0  0  0  0  0  0  0  0  0
    1.2420   -2.2160    0.0300 C   0  0  0  0  0  0  0  0  0  0  0  0
    0.4700   -1.0780   -0.1980 N   0  0  0  0  0  0  0  0  0  0  0  0
   -0.3940   -2.0940    1.6180 C   0  0  0  0  0  0  0  0  0  0  0  0
   -0.4550   -0.9890    0.7930 C   0  0  0  0  0  0  0  0  0  0  0  0
   -2.5400   -0.2190    1.7190 C   0  0  0  0  0  0  0  0  0  0  0  0
   -1.4350   -0.0490    0.9030 C   0  0  0  0  0  0  0  0  0  0  0  0
   -1.5070    1.1370    0.2450 N   0  0  0  0  0  0  0  0  0  0  0  0
   -3.4580    0.8030    1.3360 C   0  0  0  0  0  0  0  0  0  0  0  0
   -2.8350    1.5720    0.3370 C   0  0  0  0  0  0  0  0  0  0  0  0
   -3.5000    2.6270   -0.3140 C   0  0  0  0  0  0  0  0  0  0  0  0
   -4.8130    2.9150    0.0680 C   0  0  0  0  0  0  0  0  0  0  0  0
   -5.4440    2.1860    1.0710 C   0  0  0  0  0  0  0  0  0  0  0  0
   -4.7790    1.1330    1.7090 C   0  0  0  0  0  0  0  0  0  0  0  0
   -1.4000   -2.2230    2.5860 C   0  0  0  0  0  0  0  0  0  0  0  0
   -2.4820   -1.3040    2.6020 C   0  0  0  0  0  0  0  0  0  0  0  0
   -3.4230   -1.7600    3.6310 C   0  0  0  0  0  0  0  0  0  0  0  0
   -2.8900   -2.9030    4.1900 N   0  0  0  0  0  0  0  0  0  0  0  0
   -1.6280   -3.2900    3.6130 C   0  0  0  0  0  0  0  0  0  0  0  0
   -4.4720   -1.2270    3.9360 O   0  0  0  0  0  0  0  0  0  0  0  0
    2.9830    0.3930   -0.6100 O   0  0  0  0  0  0  0  0  0  0  0  0
    2.7370    0.9740    0.6570 C   0  0  0  0  0  0  0  0  0  0  0  0
    2.8220    2.5480   -2.7630 N   0  3  0  0  0  0  0  0  0  0  0  0
    3.9640    2.9140   -1.8840 C   0  0  0  0  0  0  0  0  0  0  0  0
   -0.3650    3.1030    0.5550 C   0  0  0  0  0  0  0  0  0  0  0  0
    0.3380   -0.8100   -2.1940 H   0  0  0  0  0  0  0  0  0  0  0  0
    2.4460   -0.1950   -2.4370 H   0  0  0  0  0  0  0  0  0  0  0  0
    1.0690    1.5880   -3.1560 H   0  0  0  0  0  0  0  0  0  0  0  0
    0.2900    3.3370   -1.8910 H   0  0  0  0  0  0  0  0  0  0  0  0
    1.4690    3.1030   -0.6310 H   0  0  0  0  0  0  0  0  0  0  0  0
    2.8970   -5.4850    1.2950 H   0  0  0  0  0  0  0  0  0  0  0  0
    3.7530   -4.3780   -0.7390 H   0  0  0  0  0  0  0  0  0  0  0  0
    2.7150   -2.3100   -1.5810 H   0  0  0  0  0  0  0  0  0  0  0  0
    0.9670   -4.5450    2.5170 H   0  0  0  0  0  0  0  0  0  0  0  0
   -3.0140    3.2160   -1.0850 H   0  0  0  0  0  0  0  0  0  0  0  0
   -5.3460    3.7280   -0.4210 H   0  0  0  0  0  0  0  0  0  0  0  0
   -6.4650    2.4270    1.3580 H   0  0  0  0  0  0  0  0  0  0  0  0
   -5.2940    0.5620    2.4770 H   0  0  0  0  0  0  0  0  0  0  0  0
   -3.3660   -3.3990    4.9330 H   0  0  0  0  0  0  0  0  0  0  0  0
   -0.8610   -3.2830    4.3910 H   0  0  0  0  0  0  0  0  0  0  0  0
   -1.7320   -4.2810    3.1650 H   0  0  0  0  0  0  0  0  0  0  0  0
    1.7350    0.7840    1.0360 H   0  0  0  0  0  0  0  0  0  0  0  0
    2.9220    2.0480    0.6300 H   0  0  0  0  0  0  0  0  0  0  0  0
    3.4520    0.5430    1.3650 H   0  0  0  0  0  0  0  0  0  0  0  0
    2.4510    3.4190   -3.1680 H   0  0  0  0  0  0  0  0  0  0  0  0
    3.2170    2.0370   -3.5660 H   0  0  0  0  0  0  0  0  0  0  0  0
    4.5000    2.0090   -1.5980 H   0  0  0  0  0  0  0  0  0  0  0  0
    3.5940    3.4740   -1.0260 H   0  0  0  0  0  0  0  0  0  0  0  0
    4.6270    3.5510   -2.4760 H   0  0  0  0  0  0  0  0  0  0  0  0
   -0.5070    4.0620    0.0370 H   0  0  0  0  0  0  0  0  0  0  0  0
    0.5820    3.1110    1.1120 H   0  0  0  0  0  0  0  0  0  0  0  0
   -1.1040    3.1280    1.3690 H   0  0  0  0  0  0  0  0  0  0  0  0
  1  2  1  0  0  0  0
  1  6  1  0  0  0  0
  1 13  1  0  0  0  0
  1 36  1  6  0  0  0
  2  3  1  0  0  0  0
  2 31  1  0  0  0  0
  2 37  1  6  0  0  0
  3  4  1  0  0  0  0
  3 33  1  0  0  0  0
  3 38  1  6  0  0  0
  4  5  1  0  0  0  0
  4 39  1  0  0  0  0
  4 40  1  0  0  0  0
  5  6  1  0  0  0  0
  5 18  1  0  0  0  0
  5 35  1  6  0  0  0
  7  8  2  0  0  0  0
  7 10  1  0  0  0  0
  7 41  1  0  0  0  0
  8  9  1  0  0  0  0
  8 42  1  0  0  0  0
  9 12  2  0  0  0  0
  9 43  1  0  0  0  0
 10 11  2  0  0  0  0
 10 44  1  0  0  0  0
 11 12  1  0  0  0  0
 11 14  1  0  0  0  0
 12 13  1  0  0  0  0
 13 15  1  0  0  0  0
 14 15  1  0  0  0  0
 14 25  2  0  0  0  0
 15 17  2  0  0  0  0
 16 17  1  0  0  0  0
 16 19  1  0  0  0  0
 16 26  2  0  0  0  0
 17 18  1  0  0  0  0
 18 20  1  0  0  0  0
 19 20  1  0  0  0  0
 19 24  2  0  0  0  0
 20 21  2  0  0  0  0
 21 22  1  0  0  0  0
 21 45  1  0  0  0  0
 22 23  2  0  0  0  0
 22 46  1  0  0  0  0
 23 24  1  0  0  0  0
 23 47  1  0  0  0  0
 24 48  1  0  0  0  0
 25 26  1  0  0  0  0
 25 29  1  0  0  0  0
 26 27  1  0  0  0  0
 27 28  1  0  0  0  0
 27 30  2  0  0  0  0
 28 29  1  0  0  0  0
 28 49  1  0  0  0  0
 29 50  1  0  0  0  0
 29 51  1  0  0  0  0
 31 32  1  0  0  0  0
 32 52  1  0  0  0  0
 32 53  1  0  0  0  0
 32 54  1  0  0  0  0
 33 34  1  0  0  0  0
 33 55  1  0  0  0  0
 33 56  1  0  0  0  0
 34 57  1  0  0  0  0
 34 58  1  0  0  0  0
 34 59  1  0  0  0  0
 35 60  1  0  0  0  0
 35 61  1  0  0  0  0
 35 62  1  0  0  0  0
M  CHG  1  33   1
M  END
>  <Name>
BDB50241104

>  <Target>
CDK2

>  <IC50_in_nM>
0.36000001

>  <Kd_from_ITC>
false

>  <Uniprot_ID>
P24941

>  <source_organism>
Homo sapiens

$$$$
