BDB6866
 OpenBabel12132115083D

 39 41  0  0  1  0  0  0  0  0999 V2000
    4.8200   -1.8370    0.3970 C   0  0  0  0  0  0  0  0  0  0  0  0
    5.3090    0.1620   -0.0660 C   0  0  0  0  0  0  0  0  0  0  0  0
    5.8520   -1.0400    0.2910 N   0  0  0  0  0  0  0  0  0  0  0  0
    4.8160   -3.1390    0.7240 N   0  0  0  0  0  0  0  0  0  0  0  0
    3.6660   -1.1290    0.1160 N   0  0  0  0  0  0  0  0  0  0  0  0
    3.9770    0.1510   -0.2020 N   0  0  0  0  0  0  0  0  0  0  0  0
    2.3370   -1.5690    0.1140 C   0  0  0  0  0  0  0  0  0  0  0  0
    2.1230   -2.7590    0.3380 O   0  0  0  0  0  0  0  0  0  0  0  0
    1.1980   -0.6810   -0.1390 C   0  0  0  0  0  0  0  0  0  0  0  0
    0.3610   -0.9170   -1.2230 C   0  0  0  0  0  0  0  0  0  0  0  0
   -0.7310   -0.0870   -1.4650 C   0  0  0  0  0  0  0  0  0  0  0  0
   -0.9880    0.9860   -0.6090 C   0  0  0  0  0  0  0  0  0  0  0  0
   -0.1540    1.2220    0.4850 C   0  0  0  0  0  0  0  0  0  0  0  0
    0.9340    0.3840    0.7160 C   0  0  0  0  0  0  0  0  0  0  0  0
    6.0780    1.2520   -0.2780 N   0  0  0  0  0  0  0  0  0  0  0  0
    7.4660    1.4860   -0.1650 C   0  0  0  0  0  0  0  0  0  0  0  0
    7.9760    2.7260   -0.5940 C   0  0  0  0  0  0  0  0  0  0  0  0
    9.3440    3.0180   -0.5310 C   0  0  0  0  0  0  0  0  0  0  0  0
   10.2280    2.0590   -0.0420 C   0  0  0  0  0  0  0  0  0  0  0  0
    9.7520    0.8270    0.4040 C   0  0  0  0  0  0  0  0  0  0  0  0
    8.3810    0.5470    0.3330 C   0  0  0  0  0  0  0  0  0  0  0  0
   12.5280    1.7170   -1.3670 N   0  0  0  0  0  0  0  0  0  0  0  0
   12.1490    3.8450   -0.0730 O   0  0  0  0  0  0  0  0  0  0  0  0
   11.9580    2.4170    0.0580 S   0  0  0  0  0  0  0  0  0  0  0  0
   12.5270    1.6680    1.1560 O   0  0  0  0  0  0  0  0  0  0  0  0
    0.6030   -1.9330   -2.0640 F   0  0  0  0  0  0  0  0  0  0  0  0
    1.7090    0.6040    1.7880 F   0  0  0  0  0  0  0  0  0  0  0  0
    5.6730   -3.6380    0.9310 H   0  0  0  0  0  0  0  0  0  0  0  0
    3.9450   -3.6710    0.7720 H   0  0  0  0  0  0  0  0  0  0  0  0
   -1.3750   -0.2780   -2.3190 H   0  0  0  0  0  0  0  0  0  0  0  0
   -1.8410    1.6360   -0.7940 H   0  0  0  0  0  0  0  0  0  0  0  0
   -0.3510    2.0490    1.1610 H   0  0  0  0  0  0  0  0  0  0  0  0
    5.5590    2.0690   -0.5760 H   0  0  0  0  0  0  0  0  0  0  0  0
    7.3060    3.4860   -0.9900 H   0  0  0  0  0  0  0  0  0  0  0  0
    9.7000    3.9880   -0.8700 H   0  0  0  0  0  0  0  0  0  0  0  0
   10.4280    0.0750    0.8020 H   0  0  0  0  0  0  0  0  0  0  0  0
    8.0460   -0.4240    0.6870 H   0  0  0  0  0  0  0  0  0  0  0  0
   13.1570    0.9310   -1.1910 H   0  0  0  0  0  0  0  0  0  0  0  0
   12.8930    2.4110   -2.0220 H   0  0  0  0  0  0  0  0  0  0  0  0
  1  3  2  0  0  0  0
  1  4  1  0  0  0  0
  1  5  1  0  0  0  0
  2  3  1  0  0  0  0
  2  6  2  0  0  0  0
  2 15  1  0  0  0  0
  4 28  1  0  0  0  0
  4 29  1  0  0  0  0
  5  6  1  0  0  0  0
  5  7  1  0  0  0  0
  7  8  2  0  0  0  0
  7  9  1  0  0  0  0
  9 10  1  0  0  0  0
  9 14  2  0  0  0  0
 10 11  2  0  0  0  0
 10 26  1  0  0  0  0
 11 12  1  0  0  0  0
 11 30  1  0  0  0  0
 12 13  2  0  0  0  0
 12 31  1  0  0  0  0
 13 14  1  0  0  0  0
 13 32  1  0  0  0  0
 14 27  1  0  0  0  0
 15 16  1  0  0  0  0
 15 33  1  0  0  0  0
 16 17  1  0  0  0  0
 16 21  2  0  0  0  0
 17 18  2  0  0  0  0
 17 34  1  0  0  0  0
 18 19  1  0  0  0  0
 18 35  1  0  0  0  0
 19 20  2  0  0  0  0
 19 24  1  0  0  0  0
 20 21  1  0  0  0  0
 20 36  1  0  0  0  0
 21 37  1  0  0  0  0
 22 24  1  0  0  0  0
 22 38  1  0  0  0  0
 22 39  1  0  0  0  0
 23 24  2  0  0  0  0
 24 25  2  0  0  0  0
M  END
>  <Name>
BDB6866

>  <Target>
CDK2

>  <IC50_in_nM>
2

>  <Kd_from_ITC>
false

>  <Uniprot_ID>
P24941

>  <source_organism>
Homo sapiens

>  <Kd_in_nM>
23

$$$$
