BDB50245912
 OpenBabel12132115083D

 65 69  0  0  1  0  0  0  0  0999 V2000
    0.7500   -1.2430    0.3650 N   0  0  0  0  0  0  0  0  0  0  0  0
   -0.4880   -1.5710    0.7820 C   0  0  0  0  0  0  0  0  0  0  0  0
   -1.4170   -0.6620    1.1260 N   0  0  0  0  0  0  0  0  0  0  0  0
   -1.0620    0.6350    1.0620 C   0  0  0  0  0  0  0  0  0  0  0  0
    0.1880    1.0620    0.6770 C   0  0  0  0  0  0  0  0  0  0  0  0
    1.0640    0.0660    0.3300 C   0  0  0  0  0  0  0  0  0  0  0  0
   -2.0970    1.5630    1.4910 C   0  0  0  0  0  0  0  0  0  0  0  0
   -2.7260    1.6340    2.7160 C   0  0  0  0  0  0  0  0  0  0  0  0
   -3.6210    2.6610    2.7600 N   0  0  0  0  0  0  0  0  0  0  0  0
   -3.5870    3.2220    1.5680 C   0  0  0  0  0  0  0  0  0  0  0  0
   -2.7040    2.5560    0.7330 N   0  0  0  0  0  0  0  0  0  0  0  0
   -4.4210    4.3940    1.1970 C   0  0  0  0  0  0  0  0  0  0  0  0
   -2.4440    2.8080   -0.6850 C   0  0  0  0  0  0  0  0  0  0  0  0
   -3.7050    2.8150   -1.5530 C   0  0  0  0  0  0  0  0  0  0  0  0
   -1.5920    4.0560   -0.9110 C   0  0  0  0  0  0  0  0  0  0  0  0
   -0.7680   -2.9400    0.8020 N   0  0  0  0  0  0  0  0  0  0  0  0
   -1.8820   -3.6790    1.2190 C   0  0  0  0  0  0  0  0  0  0  0  0
   -2.9120   -3.1430    2.0060 C   0  0  0  0  0  0  0  0  0  0  0  0
   -4.0510   -3.8910    2.3190 C   0  0  0  0  0  0  0  0  0  0  0  0
   -4.1770   -5.1860    1.8180 C   0  0  0  0  0  0  0  0  0  0  0  0
   -3.1570   -5.7610    1.0640 C   0  0  0  0  0  0  0  0  0  0  0  0
   -2.0170   -5.0060    0.7710 C   0  0  0  0  0  0  0  0  0  0  0  0
   -5.4460   -5.9150    1.9980 C   0  0  0  0  0  0  0  0  0  0  0  0
   -5.5410   -6.7430    2.8950 O   0  0  0  0  0  0  0  0  0  0  0  0
   -6.4540   -5.6110    1.0980 N   0  0  0  0  0  0  0  0  0  0  0  0
   -6.3760   -4.6450    0.0070 C   0  0  0  0  0  0  0  0  0  0  0  0
   -7.8190   -4.5160   -0.4670 C   0  0  2  0  0  0  0  0  0  0  0  0
   -8.4120   -5.8940   -0.1860 C   0  0  0  0  0  0  0  0  0  0  0  0
   -7.7560   -6.2600    1.1450 C   0  0  0  0  0  0  0  0  0  0  0  0
   -7.9580   -4.0710   -1.8770 N   0  3  0  0  0  0  0  0  0  0  0  0
   -7.3050   -4.8670   -2.9410 C   0  0  0  0  0  0  0  0  0  0  0  0
   -5.9670   -4.4020   -3.4400 C   0  0  0  0  0  0  0  0  0  0  0  0
   -7.1920   -4.2010   -4.2840 C   0  0  0  0  0  0  0  0  0  0  0  0
    0.4760    2.1030    0.6600 H   0  0  0  0  0  0  0  0  0  0  0  0
    2.0770    0.2920    0.0090 H   0  0  0  0  0  0  0  0  0  0  0  0
   -2.5570    1.0020    3.5780 H   0  0  0  0  0  0  0  0  0  0  0  0
   -4.8010    4.8820    2.1010 H   0  0  0  0  0  0  0  0  0  0  0  0
   -5.2870    4.0790    0.6090 H   0  0  0  0  0  0  0  0  0  0  0  0
   -3.8580    5.1440    0.6410 H   0  0  0  0  0  0  0  0  0  0  0  0
   -1.8580    1.9540   -1.0430 H   0  0  0  0  0  0  0  0  0  0  0  0
   -4.2860    3.7330   -1.4320 H   0  0  0  0  0  0  0  0  0  0  0  0
   -4.3530    1.9640   -1.3160 H   0  0  0  0  0  0  0  0  0  0  0  0
   -3.4340    2.7460   -2.6120 H   0  0  0  0  0  0  0  0  0  0  0  0
   -0.6920    4.0420   -0.2870 H   0  0  0  0  0  0  0  0  0  0  0  0
   -2.1360    4.9760   -0.6810 H   0  0  0  0  0  0  0  0  0  0  0  0
   -1.2730    4.1170   -1.9570 H   0  0  0  0  0  0  0  0  0  0  0  0
    0.0220   -3.4540    0.4370 H   0  0  0  0  0  0  0  0  0  0  0  0
   -2.8460   -2.1290    2.3920 H   0  0  0  0  0  0  0  0  0  0  0  0
   -4.8410   -3.4460    2.9170 H   0  0  0  0  0  0  0  0  0  0  0  0
   -3.2530   -6.7730    0.6810 H   0  0  0  0  0  0  0  0  0  0  0  0
   -1.2400   -5.4550    0.1560 H   0  0  0  0  0  0  0  0  0  0  0  0
   -5.7030   -5.0630   -0.7470 H   0  0  0  0  0  0  0  0  0  0  0  0
   -5.9780   -3.6860    0.3490 H   0  0  0  0  0  0  0  0  0  0  0  0
   -8.3430   -3.7660    0.1390 H   0  0  0  0  0  0  0  0  0  0  0  0
   -8.1200   -6.6290   -0.9440 H   0  0  0  0  0  0  0  0  0  0  0  0
   -9.5040   -5.8850   -0.1210 H   0  0  0  0  0  0  0  0  0  0  0  0
   -8.3080   -5.8390    1.9930 H   0  0  0  0  0  0  0  0  0  0  0  0
   -7.6510   -7.3390    1.2900 H   0  0  0  0  0  0  0  0  0  0  0  0
   -7.6200   -3.0990   -1.9450 H   0  0  0  0  0  0  0  0  0  0  0  0
   -8.9610   -4.0160   -2.1040 H   0  0  0  0  0  0  0  0  0  0  0  0
   -7.5130   -5.9330   -2.9610 H   0  0  0  0  0  0  0  0  0  0  0  0
   -5.2560   -5.1580   -3.7560 H   0  0  0  0  0  0  0  0  0  0  0  0
   -5.5030   -3.5250   -3.0050 H   0  0  0  0  0  0  0  0  0  0  0  0
   -7.2990   -4.8210   -5.1680 H   0  0  0  0  0  0  0  0  0  0  0  0
   -7.5560   -3.1890   -4.4170 H   0  0  0  0  0  0  0  0  0  0  0  0
  1  2  1  0  0  0  0
  1  6  2  0  0  0  0
  2  3  2  0  0  0  0
  2 16  1  0  0  0  0
  3  4  1  0  0  0  0
  4  5  2  0  0  0  0
  4  7  1  0  0  0  0
  5  6  1  0  0  0  0
  5 34  1  0  0  0  0
  6 35  1  0  0  0  0
  7  8  2  0  0  0  0
  7 11  1  0  0  0  0
  8  9  1  0  0  0  0
  8 36  1  0  0  0  0
  9 10  2  0  0  0  0
 10 11  1  0  0  0  0
 10 12  1  0  0  0  0
 11 13  1  0  0  0  0
 12 37  1  0  0  0  0
 12 38  1  0  0  0  0
 12 39  1  0  0  0  0
 13 14  1  0  0  0  0
 13 15  1  0  0  0  0
 13 40  1  0  0  0  0
 14 41  1  0  0  0  0
 14 42  1  0  0  0  0
 14 43  1  0  0  0  0
 15 44  1  0  0  0  0
 15 45  1  0  0  0  0
 15 46  1  0  0  0  0
 16 17  1  0  0  0  0
 16 47  1  0  0  0  0
 17 18  1  0  0  0  0
 17 22  2  0  0  0  0
 18 19  2  0  0  0  0
 18 48  1  0  0  0  0
 19 20  1  0  0  0  0
 19 49  1  0  0  0  0
 20 21  2  0  0  0  0
 20 23  1  0  0  0  0
 21 22  1  0  0  0  0
 21 50  1  0  0  0  0
 22 51  1  0  0  0  0
 23 24  2  0  0  0  0
 23 25  1  0  0  0  0
 25 26  1  0  0  0  0
 25 29  1  0  0  0  0
 26 27  1  0  0  0  0
 26 52  1  0  0  0  0
 26 53  1  0  0  0  0
 27 28  1  0  0  0  0
 27 30  1  0  0  0  0
 27 54  1  1  0  0  0
 28 29  1  0  0  0  0
 28 55  1  0  0  0  0
 28 56  1  0  0  0  0
 29 57  1  0  0  0  0
 29 58  1  0  0  0  0
 30 31  1  0  0  0  0
 30 59  1  0  0  0  0
 30 60  1  0  0  0  0
 31 32  1  0  0  0  0
 31 33  1  0  0  0  0
 31 61  1  0  0  0  0
 32 33  1  0  0  0  0
 32 62  1  0  0  0  0
 32 63  1  0  0  0  0
 33 64  1  0  0  0  0
 33 65  1  0  0  0  0
M  CHG  1  30   1
M  END
>  <Name>
BDB50245912

>  <Target>
CDK2

>  <IC50_in_nM>
1

>  <Kd_from_ITC>
false

>  <Uniprot_ID>
P24941

>  <source_organism>
Homo sapiens

$$$$
