BDB50293153
 OpenBabel12132115083D

 36 39  0  0  1  0  0  0  0  0999 V2000
    2.3650   -1.1180   -0.7870 N   0  0  0  0  0  0  0  0  0  0  0  0
    3.0620    0.0010   -0.9840 C   0  0  0  0  0  0  0  0  0  0  0  0
    2.3920    1.1540   -0.5240 C   0  0  0  0  0  0  0  0  0  0  0  0
    1.2490   -0.6980   -0.1620 N   0  0  0  0  0  0  0  0  0  0  0  0
    1.2240    0.6730    0.0350 C   0  0  0  0  0  0  0  0  0  0  0  0
    0.1110    1.2090    0.7270 C   0  0  0  0  0  0  0  0  0  0  0  0
   -0.8640    0.3840    1.1260 C   0  0  0  0  0  0  0  0  0  0  0  0
   -0.7000   -1.0550    0.8130 C   0  0  0  0  0  0  0  0  0  0  0  0
    0.3030   -1.5990    0.2020 N   0  0  0  0  0  0  0  0  0  0  0  0
    2.8230    2.5370   -0.5600 C   0  0  0  0  0  0  0  0  0  0  0  0
    1.9520    3.5330   -0.9520 C   0  0  0  0  0  0  0  0  0  0  0  0
    2.4670    4.8040   -0.9640 C   0  0  0  0  0  0  0  0  0  0  0  0
    3.7350    5.0910   -0.6240 N   0  0  0  0  0  0  0  0  0  0  0  0
    4.5290    4.0680   -0.2690 C   0  0  0  0  0  0  0  0  0  0  0  0
    4.1100    2.7910   -0.2370 N   0  0  0  0  0  0  0  0  0  0  0  0
    5.8620    4.2600    0.0960 N   0  0  0  0  0  0  0  0  0  0  0  0
    6.6810    5.3910    0.2130 C   0  0  0  0  0  0  0  0  0  0  0  0
    6.2420    6.6990   -0.0260 C   0  0  0  0  0  0  0  0  0  0  0  0
    7.1230    7.7830    0.1070 C   0  0  0  0  0  0  0  0  0  0  0  0
    8.4560    7.5850    0.4790 C   0  0  0  0  0  0  0  0  0  0  0  0
    8.9040    6.2900    0.7190 C   0  0  0  0  0  0  0  0  0  0  0  0
    8.0250    5.2100    0.5860 C   0  0  0  0  0  0  0  0  0  0  0  0
    6.6390    9.1430   -0.1470 N   0  3  0  0  0  0  0  0  0  0  0  0
    5.4380    9.2910   -0.4120 O   0  5  0  0  0  0  0  0  0  0  0  0
    7.4610   10.0680   -0.0800 O   0  0  0  0  0  0  0  0  0  0  0  0
    4.0290   -0.0640   -1.4660 H   0  0  0  0  0  0  0  0  0  0  0  0
    0.0540    2.2700    0.9450 H   0  0  0  0  0  0  0  0  0  0  0  0
   -1.7430    0.7110    1.6650 H   0  0  0  0  0  0  0  0  0  0  0  0
   -1.5280   -1.7010    1.1500 H   0  0  0  0  0  0  0  0  0  0  0  0
    0.9300    3.3420   -1.2520 H   0  0  0  0  0  0  0  0  0  0  0  0
    1.8610    5.6550   -1.2590 H   0  0  0  0  0  0  0  0  0  0  0  0
    6.2810    3.3660    0.3140 H   0  0  0  0  0  0  0  0  0  0  0  0
    5.2110    6.8810   -0.3160 H   0  0  0  0  0  0  0  0  0  0  0  0
    9.1500    8.4150    0.5870 H   0  0  0  0  0  0  0  0  0  0  0  0
    9.9370    6.1170    1.0090 H   0  0  0  0  0  0  0  0  0  0  0  0
    8.4100    4.2100    0.7800 H   0  0  0  0  0  0  0  0  0  0  0  0
  1  2  2  0  0  0  0
  1  4  1  0  0  0  0
  2  3  1  0  0  0  0
  2 26  1  0  0  0  0
  3  5  2  0  0  0  0
  3 10  1  0  0  0  0
  4  5  1  0  0  0  0
  4  9  1  0  0  0  0
  5  6  1  0  0  0  0
  6  7  2  0  0  0  0
  6 27  1  0  0  0  0
  7  8  1  0  0  0  0
  7 28  1  0  0  0  0
  8  9  2  0  0  0  0
  8 29  1  0  0  0  0
 10 11  1  0  0  0  0
 10 15  2  0  0  0  0
 11 12  2  0  0  0  0
 11 30  1  0  0  0  0
 12 13  1  0  0  0  0
 12 31  1  0  0  0  0
 13 14  2  0  0  0  0
 14 15  1  0  0  0  0
 14 16  1  0  0  0  0
 16 17  1  0  0  0  0
 16 32  1  0  0  0  0
 17 18  1  0  0  0  0
 17 22  2  0  0  0  0
 18 19  2  0  0  0  0
 18 33  1  0  0  0  0
 19 20  1  0  0  0  0
 19 23  1  0  0  0  0
 20 21  2  0  0  0  0
 20 34  1  0  0  0  0
 21 22  1  0  0  0  0
 21 35  1  0  0  0  0
 22 36  1  0  0  0  0
 23 24  1  0  0  0  0
 23 25  2  0  0  0  0
M  CHG  2  23   1  24  -1
M  END
>  <Name>
BDB50293153

>  <Target>
CDK2

>  <IC50_in_nM>
0.30000001

>  <Kd_from_ITC>
false

>  <Uniprot_ID>
P24941

>  <source_organism>
Homo sapiens

$$$$
