@<TRIPOS>MOLECULE
ZINC00002103
 23 24 0 0 0
SMALL
USER_CHARGES

@<TRIPOS>ATOM
      1 C1        -12.8600  205.5500  113.8000 C.2     1  UNK01       0.0000
      2 O1        -13.4100  206.0000  114.7800 O.2     1  UNK01       0.0000
      3 N1        -13.3900  204.5100  113.0100 N.am    1  UNK01       0.0000
      4 C2         -9.0300  207.3000  112.6800 C.2     1  UNK01       0.0000
      5 C3        -10.0700  207.2500  111.7700 C.2     1  UNK01       0.0000
      6 C4        -11.2900  206.6200  112.1100 C.2     1  UNK01       0.0000
      7 C5        -11.4900  206.0300  113.3800 C.2     1  UNK01       0.0000
      8 C6        -10.3900  205.9800  114.2400 C.2     1  UNK01       0.0000
      9 C7         -9.1900  206.6100  113.8900 C.2     1  UNK01       0.0000
     10 O2         -7.8200  207.9000  112.5800 O.2     1  UNK01       0.0000
     11 C8         -5.7700  206.9700  111.5800 C.3     1  UNK01       0.0000
     12 C9         -6.5200  207.3600  112.8400 C.3     1  UNK01       0.0000
     13 C10        -5.6400  208.0700  113.8600 C.3     1  UNK01       0.0000
     14 S1        -14.8800  203.7600  113.1400 S.O2    1  UNK01       0.0000
     15 O3        -15.0100  202.6900  112.2000 O.2     1  UNK01       0.0000
     16 O4        -15.0300  203.5300  114.5700 O.2     1  UNK01       0.0000
     17 C11       -16.0300  205.0600  112.7200 C.2     1  UNK01       0.0000
     18 C12       -17.2900  205.0700  113.3200 C.2     1  UNK01       0.0000
     19 C13       -18.2800  205.9000  112.8000 C.2     1  UNK01       0.0000
     20 C14       -18.0200  206.6900  111.6700 C.2     1  UNK01       0.0000
     21 C15       -16.7000  206.8400  111.2400 C.2     1  UNK01       0.0000
     22 C16       -15.7000  206.0000  111.7500 C.2     1  UNK01       0.0000
     23 N2        -19.0500  207.4400  111.0800 N.pl3   1  UNK01       0.0000
@<TRIPOS>BOND
     1     1     2    2
     2     1     3   am
     3     1     7    1
     4     3    14    1
     5     4     5    2
     6     4     9    1
     7     4    10    1
     8     5     6    1
     9     6     7    2
    10     7     8    1
    11     8     9    2
    12    10    12    1
    13    11    12    1
    14    12    13    1
    15    14    15    2
    16    14    16    2
    17    14    17    1
    18    17    18    2
    19    17    22    1
    20    18    19    1
    21    19    20    2
    22    20    21    1
    23    20    23    1
    24    21    22    2
