complex.gro
  PyMOL2.5          3D                             0

 23 24  0  0  0  0  0  0  0  0999 V2000
   -9.0301  207.2997  112.6797 C   0  0  0  0  0  0  0  0  0  0  0  0
  -10.0701  207.2498  111.7697 C   0  0  0  0  0  0  0  0  0  0  0  0
  -11.2901  206.6198  112.1097 C   0  0  0  0  0  0  0  0  0  0  0  0
  -11.4901  206.0298  113.3797 C   0  0  0  0  0  0  0  0  0  0  0  0
  -10.3901  205.9797  114.2397 C   0  0  0  0  0  0  0  0  0  0  0  0
   -9.1901  206.6097  113.8897 C   0  0  0  0  0  0  0  0  0  0  0  0
  -16.0301  205.0598  112.7197 C   0  0  0  0  0  0  0  0  0  0  0  0
  -17.2901  205.0698  113.3197 C   0  0  0  0  0  0  0  0  0  0  0  0
  -18.2801  205.8998  112.7997 C   0  0  0  0  0  0  0  0  0  0  0  0
  -18.0201  206.6898  111.6697 C   0  0  0  0  0  0  0  0  0  0  0  0
  -16.7001  206.8398  111.2397 C   0  0  0  0  0  0  0  0  0  0  0  0
  -15.7001  205.9998  111.7497 C   0  0  0  0  0  0  0  0  0  0  0  0
  -12.8601  205.5498  113.7997 C   0  0  0  0  0  0  0  0  0  0  0  0
  -13.4101  205.9998  114.7797 O   0  0  0  0  0  0  0  0  0  0  0  0
  -13.3901  204.5098  113.0097 N   0  0  0  0  0  0  0  0  0  0  0  0
   -7.8201  207.8997  112.5797 O   0  0  0  0  0  0  0  0  0  0  0  0
   -5.7701  206.9697  111.5797 C   0  0  0  0  0  0  0  0  0  0  0  0
   -6.5201  207.3597  112.8397 C   0  0  0  0  0  0  0  0  0  0  0  0
   -5.6401  208.0697  113.8597 C   0  0  0  0  0  0  0  0  0  0  0  0
  -14.8801  203.7598  113.1397 S   0  0  0  0  0  0  0  0  0  0  0  0
  -15.0101  202.6898  112.1997 O   0  0  0  0  0  0  0  0  0  0  0  0
  -15.0301  203.5298  114.5697 O   0  0  0  0  0  0  0  0  0  0  0  0
  -19.0501  207.4398  111.0797 N   0  0  0  0  0  0  0  0  0  0  0  0
  1  2  1  0  0  0  0
  1  6  1  0  0  0  0
  1 16  1  0  0  0  0
  2  3  1  0  0  0  0
  3  4  1  0  0  0  0
  4  5  1  0  0  0  0
  4 13  1  0  0  0  0
  5  6  1  0  0  0  0
  7  8  1  0  0  0  0
  7 12  1  0  0  0  0
  7 20  1  0  0  0  0
  8  9  1  0  0  0  0
  9 10  1  0  0  0  0
 10 11  1  0  0  0  0
 10 23  1  0  0  0  0
 11 12  1  0  0  0  0
 13 14  1  0  0  0  0
 13 15  1  0  0  0  0
 15 20  1  0  0  0  0
 16 18  1  0  0  0  0
 17 18  1  0  0  0  0
 18 19  1  0  0  0  0
 20 21  1  0  0  0  0
 20 22  1  0  0  0  0
M  END
$$$$
