# created with PyMOL 2.5.0
@<TRIPOS>MOLECULE
ZINC00002103
41 42 1                 
SMALL
USER_CHARGES
@<TRIPOS>ATOM
1	 H12	-5.360	207.380	114.650	 H	1	UNK0	0.000	
2	 H17	-19.990	207.370	111.440	 H	1	UNK0	0.000	
3	 H01	-12.800	204.170	112.260	 H	1	UNK0	0.000	
4	 H18	-18.840	208.050	110.310	 H	1	UNK0	0.000	
5	 H03	-12.100	206.590	111.380	 H	1	UNK0	0.000	
6	 H02	-9.950	207.700	110.780	 H	1	UNK0	0.000	
7	 H06	-4.770	206.620	111.840	 H	1	UNK0	0.000	
8	 H05	-8.350	206.560	114.580	 H	1	UNK0	0.000	
9	 H07	-6.310	206.170	111.060	 H	1	UNK0	0.000	
10	 H04	-10.470	205.440	115.190	 H	1	UNK0	0.000	
11	 H10	-4.750	208.450	113.360	 H	1	UNK0	0.000	
12	 H09	-6.780	206.440	113.370	 H	1	UNK0	0.000	
13	 H08	-5.680	207.840	110.920	 H	1	UNK0	0.000	
14	 H11	-6.190	208.910	114.290	 H	1	UNK0	0.000	
15	 H15	-16.450	207.600	110.510	 H	1	UNK0	0.000	
16	 H14	-19.260	205.950	113.280	 H	1	UNK0	0.000	
17	 H13	-17.500	204.430	114.180	 H	1	UNK0	0.000	
18	 H16	-14.670	206.090	111.400	 H	1	UNK0	0.000	
19	  C1	-12.860	205.550	113.800	C.2	1	UNK0	0.000	
20	  O1	-13.410	206.000	114.780	O.2	1	UNK0	0.000	
21	  N1	-13.390	204.510	113.010	N.pl3	1	UNK0	0.000	
22	  C2	-9.030	207.300	112.680	C.2	1	UNK0	0.000	
23	  C3	-10.070	207.250	111.770	C.2	1	UNK0	0.000	
24	  C4	-11.290	206.620	112.110	C.2	1	UNK0	0.000	
25	  C5	-11.490	206.030	113.380	C.2	1	UNK0	0.000	
26	  C6	-10.390	205.980	114.240	C.2	1	UNK0	0.000	
27	  C7	-9.190	206.610	113.890	C.2	1	UNK0	0.000	
28	  O2	-7.820	207.900	112.580	O.3	1	UNK0	0.000	
29	  C8	-5.770	206.970	111.580	C.3	1	UNK0	0.000	
30	  C9	-6.520	207.360	112.840	C.3	1	UNK0	0.000	
31	 C10	-5.640	208.070	113.860	C.3	1	UNK0	0.000	
32	  S1	-14.880	203.760	113.140	S.o2	1	UNK0	0.000	
33	  O3	-15.010	202.690	112.200	O.2	1	UNK0	0.000	
34	  O4	-15.030	203.530	114.570	O.2	1	UNK0	0.000	
35	 C11	-16.030	205.060	112.720	C.2	1	UNK0	0.000	
36	 C12	-17.290	205.070	113.320	C.2	1	UNK0	0.000	
37	 C13	-18.280	205.900	112.800	C.2	1	UNK0	0.000	
38	 C14	-18.020	206.690	111.670	C.2	1	UNK0	0.000	
39	 C15	-16.700	206.840	111.240	C.2	1	UNK0	0.000	
40	 C16	-15.700	206.000	111.750	C.2	1	UNK0	0.000	
41	  N2	-19.050	207.440	111.080	N.pl3	1	UNK0	0.000	
@<TRIPOS>BOND
1 19 20 2
2 19 21 1
3 19 25 1
4 3 21 1
5 21 32 1
6 22 23 2
7 22 27 1
8 22 28 1
9 6 23 1
10 23 24 1
11 5 24 1
12 24 25 2
13 25 26 1
14 10 26 1
15 26 27 2
16 8 27 1
17 28 30 1
18 7 29 1
19 9 29 1
20 13 29 1
21 29 30 1
22 12 30 1
23 30 31 1
24 1 31 1
25 11 31 1
26 14 31 1
27 32 33 2
28 32 34 2
29 32 35 1
30 35 36 2
31 35 40 1
32 17 36 1
33 36 37 1
34 16 37 1
35 37 38 2
36 38 39 1
37 38 41 1
38 15 39 1
39 39 40 2
40 18 40 1
41 2 41 1
42 4 41 1
@<TRIPOS>SUBSTRUCTURE
1	UNK0	1	GROUP	1 ****	UNK
