@<TRIPOS>MOLECULE
ZINC00002103
 23 24 0 0 0
SMALL
USER_CHARGES

@<TRIPOS>ATOM
      1 C1        -12.4200  206.1900  115.0200 C.2     1  UNK01       0.0000
      2 O1        -13.5300  206.3700  115.4800 O.2     1  UNK01       0.0000
      3 N1        -12.2300  205.2900  113.9400 N.am    1  UNK01       0.0000
      4 C2         -9.0900  208.5100  116.4100 C.2     1  UNK01       0.0000
      5 C3         -8.9000  207.6700  115.2900 C.2     1  UNK01       0.0000
      6 C4         -9.9700  206.9000  114.8200 C.2     1  UNK01       0.0000
      7 C5        -11.2300  206.9600  115.4500 C.2     1  UNK01       0.0000
      8 C6        -11.4000  207.8100  116.5600 C.2     1  UNK01       0.0000
      9 C7        -10.3300  208.5700  117.0300 C.2     1  UNK01       0.0000
     10 O2         -8.0600  209.3000  116.9500 O.2     1  UNK01       0.0000
     11 C8         -6.2500  210.7500  116.4300 C.3     1  UNK01       0.0000
     12 C9         -6.9300  209.4400  116.1000 C.3     1  UNK01       0.0000
     13 C10        -5.9200  208.3200  116.3700 C.3     1  UNK01       0.0000
     14 S1        -13.3200  204.1500  113.6300 S.O2    1  UNK01       0.0000
     15 O3        -12.7800  203.4300  112.5000 O.2     1  UNK01       0.0000
     16 O4        -13.6300  203.4600  114.8800 O.2     1  UNK01       0.0000
     17 C11       -14.7600  205.0400  113.0500 C.2     1  UNK01       0.0000
     18 C12       -16.0100  204.7000  113.5500 C.2     1  UNK01       0.0000
     19 C13       -17.1500  205.3000  113.0200 C.2     1  UNK01       0.0000
     20 C14       -17.0400  206.2800  112.0200 C.2     1  UNK01       0.0000
     21 C15       -15.7800  206.7100  111.6300 C.2     1  UNK01       0.0000
     22 C16       -14.6200  206.0800  112.0900 C.2     1  UNK01       0.0000
     23 N2        -18.1800  206.9600  111.6500 N.pl3   1  UNK01       0.0000
@<TRIPOS>BOND
     1     1     2    2
     2     1     3   am
     3     1     7    1
     4     3    14    1
     5     4     5    2
     6     4     9    1
     7     4    10    1
     8     5     6    1
     9     6     7    2
    10     7     8    1
    11     8     9    2
    12    10    12    1
    13    11    12    1
    14    12    13    1
    15    14    15    2
    16    14    16    2
    17    14    17    1
    18    17    18    2
    19    17    22    1
    20    18    19    1
    21    19    20    2
    22    20    21    1
    23    20    23    1
    24    21    22    2
