# created with PyMOL 2.5.0
@<TRIPOS>MOLECULE
ZINC00002103
41 42 1                 
SMALL
USER_CHARGES
@<TRIPOS>ATOM
1	 H12	-1.240	206.920	114.610	 H	1	UNK0	0.000	
2	 H17	-17.370	206.340	113.200	 H	1	UNK0	0.000	
3	 H01	-10.370	206.440	115.140	 H	1	UNK0	0.000	
4	 H18	-16.780	206.360	111.660	 H	1	UNK0	0.000	
5	 H03	-8.450	206.360	112.380	 H	1	UNK0	0.000	
6	 H02	-6.290	207.260	111.550	 H	1	UNK0	0.000	
7	 H06	-1.210	205.790	112.360	 H	1	UNK0	0.000	
8	 H05	-4.520	206.660	115.420	 H	1	UNK0	0.000	
9	 H07	-2.670	205.790	111.350	 H	1	UNK0	0.000	
10	 H04	-6.660	205.760	116.280	 H	1	UNK0	0.000	
11	 H10	-1.780	208.410	113.800	 H	1	UNK0	0.000	
12	 H09	-3.230	205.710	113.760	 H	1	UNK0	0.000	
13	 H08	-1.780	207.290	111.600	 H	1	UNK0	0.000	
14	 H11	-2.710	207.770	115.150	 H	1	UNK0	0.000	
15	 H15	-14.500	206.280	111.070	 H	1	UNK0	0.000	
16	 H14	-15.830	206.360	115.120	 H	1	UNK0	0.000	
17	 H13	-13.630	205.630	115.920	 H	1	UNK0	0.000	
18	 H16	-12.260	205.480	111.800	 H	1	UNK0	0.000	
19	  C1	-8.870	205.220	114.810	C.2	1	UNK0	0.000	
20	  O1	-8.640	204.050	115.100	O.2	1	UNK0	0.000	
21	  N1	-10.120	205.700	114.440	N.pl3	1	UNK0	0.000	
22	  C2	-5.270	206.980	113.420	C.2	1	UNK0	0.000	
23	  C3	-6.380	206.940	112.580	C.2	1	UNK0	0.000	
24	  C4	-7.600	206.460	113.050	C.2	1	UNK0	0.000	
25	  C5	-7.710	206.030	114.390	C.2	1	UNK0	0.000	
26	  C6	-6.590	206.110	115.250	C.2	1	UNK0	0.000	
27	  C7	-5.370	206.600	114.760	C.2	1	UNK0	0.000	
28	  O2	-4.080	207.440	112.860	O.3	1	UNK0	0.000	
29	  C8	-2.100	206.360	112.090	C.3	1	UNK0	0.000	
30	  C9	-2.950	206.670	113.310	C.3	1	UNK0	0.000	
31	 C10	-2.120	207.490	114.280	C.3	1	UNK0	0.000	
32	  S1	-11.310	204.590	114.440	S.o2	1	UNK0	0.000	
33	  O3	-11.030	203.670	113.360	O.2	1	UNK0	0.000	
34	  O4	-11.520	204.130	115.790	O.2	1	UNK0	0.000	
35	 C11	-12.790	205.510	113.910	C.2	1	UNK0	0.000	
36	 C12	-13.800	205.760	114.850	C.2	1	UNK0	0.000	
37	 C13	-15.060	206.170	114.400	C.2	1	UNK0	0.000	
38	 C14	-15.340	206.250	113.040	C.2	1	UNK0	0.000	
39	 C15	-14.300	206.110	112.120	C.2	1	UNK0	0.000	
40	 C16	-13.030	205.690	112.540	C.2	1	UNK0	0.000	
41	  N2	-16.600	206.680	112.610	N.pl3	1	UNK0	0.000	
@<TRIPOS>BOND
1 19 20 2
2 19 21 1
3 19 25 1
4 3 21 1
5 21 32 1
6 22 23 2
7 22 27 1
8 22 28 1
9 6 23 1
10 23 24 1
11 5 24 1
12 24 25 2
13 25 26 1
14 10 26 1
15 26 27 2
16 8 27 1
17 28 30 1
18 7 29 1
19 9 29 1
20 13 29 1
21 29 30 1
22 12 30 1
23 30 31 1
24 1 31 1
25 11 31 1
26 14 31 1
27 32 33 2
28 32 34 2
29 32 35 1
30 35 36 2
31 35 40 1
32 17 36 1
33 36 37 1
34 16 37 1
35 37 38 2
36 38 39 1
37 38 41 1
38 15 39 1
39 39 40 2
40 18 40 1
41 2 41 1
42 4 41 1
@<TRIPOS>SUBSTRUCTURE
1	UNK0	1	GROUP	1 ****	UNK
