step2_200_2000_5.0_86398.xyz.gro
  PyMOL2.5          3D                             0

 23 24  0  0  0  0  0  0  0  0999 V2000
   -9.0928  208.5099  116.4035 C   0  0  0  0  0  0  0  0  0  0  0  0
   -8.9030  207.6701  115.2834 C   0  0  0  0  0  0  0  0  0  0  0  0
   -9.9730  206.9002  114.8134 C   0  0  0  0  0  0  0  0  0  0  0  0
  -11.2330  206.9601  115.4436 C   0  0  0  0  0  0  0  0  0  0  0  0
  -11.4028  207.8099  116.5538 C   0  0  0  0  0  0  0  0  0  0  0  0
  -10.3327  208.5698  117.0237 C   0  0  0  0  0  0  0  0  0  0  0  0
  -14.7634  205.0406  113.0438 C   0  0  0  0  0  0  0  0  0  0  0  0
  -16.0133  204.7006  113.5439 C   0  0  0  0  0  0  0  0  0  0  0  0
  -17.1533  205.3007  113.0142 C   0  0  0  0  0  0  0  0  0  0  0  0
  -17.0435  206.2809  112.0143 C   0  0  0  0  0  0  0  0  0  0  0  0
  -15.7835  206.7109  111.6242 C   0  0  0  0  0  0  0  0  0  0  0  0
  -14.6235  206.0808  112.0839 C   0  0  0  0  0  0  0  0  0  0  0  0
  -12.4230  206.1902  115.0136 C   0  0  0  0  0  0  0  0  0  0  0  0
  -13.5330  206.3702  115.4738 O   0  0  0  0  0  0  0  0  0  0  0  0
  -12.2332  205.2904  113.9334 N   0  0  0  0  0  0  0  0  0  0  0  0
   -8.0627  209.2998  116.9435 O   0  0  0  0  0  0  0  0  0  0  0  0
   -6.2527  210.7498  116.4235 C   0  0  0  0  0  0  0  0  0  0  0  0
   -6.9328  209.4399  116.0934 C   0  0  0  0  0  0  0  0  0  0  0  0
   -5.9228  208.3198  116.3631 C   0  0  0  0  0  0  0  0  0  0  0  0
  -13.3233  204.1505  113.6234 S   0  0  0  0  0  0  0  0  0  0  0  0
  -12.7835  203.4307  112.4932 O   0  0  0  0  0  0  0  0  0  0  0  0
  -13.6331  203.4603  114.8733 O   0  0  0  0  0  0  0  0  0  0  0  0
  -18.1835  206.9610  111.6446 N   0  0  0  0  0  0  0  0  0  0  0  0
  1  2  1  0  0  0  0
  1  6  1  0  0  0  0
  1 16  1  0  0  0  0
  2  3  1  0  0  0  0
  3  4  1  0  0  0  0
  4  5  1  0  0  0  0
  4 13  1  0  0  0  0
  5  6  1  0  0  0  0
  7  8  1  0  0  0  0
  7 12  1  0  0  0  0
  7 20  1  0  0  0  0
  8  9  1  0  0  0  0
  9 10  1  0  0  0  0
 10 11  1  0  0  0  0
 10 23  1  0  0  0  0
 11 12  1  0  0  0  0
 13 14  1  0  0  0  0
 13 15  1  0  0  0  0
 15 20  1  0  0  0  0
 16 18  1  0  0  0  0
 17 18  1  0  0  0  0
 18 19  1  0  0  0  0
 20 21  1  0  0  0  0
 20 22  1  0  0  0  0
M  END
$$$$
