step2_200_2000_5.0_23287.xyz.gro
  PyMOL2.5          3D                             0

 23 24  0  0  0  0  0  0  0  0999 V2000
  -10.8272  206.3854  117.9949 C   0  0  0  0  0  0  0  0  0  0  0  0
  -10.4278  205.4154  117.0547 C   0  0  0  0  0  0  0  0  0  0  0  0
  -11.3082  205.0457  116.0349 C   0  0  0  0  0  0  0  0  0  0  0  0
  -12.5881  205.6360  115.9454 C   0  0  0  0  0  0  0  0  0  0  0  0
  -12.9575  206.6260  116.8756 C   0  0  0  0  0  0  0  0  0  0  0  0
  -12.0671  207.0057  117.8854 C   0  0  0  0  0  0  0  0  0  0  0  0
  -15.3695  204.9870  112.3163 C   0  0  0  0  0  0  0  0  0  0  0  0
  -16.6494  204.8073  112.8568 C   0  0  0  0  0  0  0  0  0  0  0  0
  -17.6793  205.6476  112.4172 C   0  0  0  0  0  0  0  0  0  0  0  0
  -17.4594  206.6076  111.4472 C   0  0  0  0  0  0  0  0  0  0  0  0
  -16.1695  206.8073  110.9567 C   0  0  0  0  0  0  0  0  0  0  0  0
  -15.1196  205.9770  111.3463 C   0  0  0  0  0  0  0  0  0  0  0  0
  -13.6085  205.1763  114.9557 C   0  0  0  0  0  0  0  0  0  0  0  0
  -14.7984  205.3266  115.1462 O   0  0  0  0  0  0  0  0  0  0  0  0
  -13.1091  204.5963  113.8055 N   0  0  0  0  0  0  0  0  0  0  0  0
  -10.0467  206.7751  119.0846 O   0  0  0  0  0  0  0  0  0  0  0  0
   -7.7270  206.2545  118.6338 C   0  0  0  0  0  0  0  0  0  0  0  0
   -8.9768  205.8648  119.3842 C   0  0  0  0  0  0  0  0  0  0  0  0
   -8.6863  205.9846  120.8641 C   0  0  0  0  0  0  0  0  0  0  0  0
  -14.0697  203.8166  112.7458 S   0  0  0  0  0  0  0  0  0  0  0  0
  -13.2001  203.6565  111.6055 O   0  0  0  0  0  0  0  0  0  0  0  0
  -14.6297  202.6767  113.4359 O   0  0  0  0  0  0  0  0  0  0  0  0
  -18.4592  207.5379  111.1776 N   0  0  0  0  0  0  0  0  0  0  0  0
  1  2  1  0  0  0  0
  1  6  1  0  0  0  0
  1 16  1  0  0  0  0
  2  3  1  0  0  0  0
  3  4  1  0  0  0  0
  4  5  1  0  0  0  0
  4 13  1  0  0  0  0
  5  6  1  0  0  0  0
  7  8  1  0  0  0  0
  7 12  1  0  0  0  0
  7 20  1  0  0  0  0
  8  9  1  0  0  0  0
  9 10  1  0  0  0  0
 10 11  1  0  0  0  0
 10 23  1  0  0  0  0
 11 12  1  0  0  0  0
 13 14  1  0  0  0  0
 13 15  1  0  0  0  0
 15 20  1  0  0  0  0
 16 18  1  0  0  0  0
 17 18  1  0  0  0  0
 18 19  1  0  0  0  0
 20 21  1  0  0  0  0
 20 22  1  0  0  0  0
M  END
$$$$
