# created with PyMOL 2.5.0
@<TRIPOS>MOLECULE
ZINC00002103
41 42 1                 
SMALL
USER_CHARGES
@<TRIPOS>ATOM
1	 H12	-5.410	206.190	113.950	 H	1	UNK0	0.000	
2	 H17	-20.530	206.330	111.260	 H	1	UNK0	0.000	
3	 H01	-12.960	204.420	112.790	 H	1	UNK0	0.000	
4	 H18	-19.600	207.730	111.080	 H	1	UNK0	0.000	
5	 H03	-11.610	206.180	111.940	 H	1	UNK0	0.000	
6	 H02	-9.240	206.800	111.920	 H	1	UNK0	0.000	
7	 H06	-6.740	209.340	112.610	 H	1	UNK0	0.000	
8	 H05	-9.300	207.330	116.190	 H	1	UNK0	0.000	
9	 H07	-6.640	208.330	111.160	 H	1	UNK0	0.000	
10	 H04	-11.720	206.770	116.240	 H	1	UNK0	0.000	
11	 H10	-4.930	207.000	112.440	 H	1	UNK0	0.000	
12	 H09	-7.310	206.340	112.420	 H	1	UNK0	0.000	
13	 H08	-8.220	208.710	111.900	 H	1	UNK0	0.000	
14	 H11	-5.200	207.920	113.910	 H	1	UNK0	0.000	
15	 H15	-17.400	207.870	111.560	 H	1	UNK0	0.000	
16	 H14	-19.720	204.430	112.570	 H	1	UNK0	0.000	
17	 H13	-17.730	203.300	113.420	 H	1	UNK0	0.000	
18	 H16	-15.330	206.770	112.380	 H	1	UNK0	0.000	
19	  C1	-13.250	205.970	114.170	C.2	1	UNK0	0.000	
20	  O1	-14.040	206.480	114.970	O.2	1	UNK0	0.000	
21	  N1	-13.640	204.980	113.310	N.pl3	1	UNK0	0.000	
22	  C2	-9.110	207.070	114.070	C.2	1	UNK0	0.000	
23	  C3	-9.770	206.760	112.870	C.2	1	UNK0	0.000	
24	  C4	-11.120	206.410	112.870	C.2	1	UNK0	0.000	
25	  C5	-11.830	206.390	114.100	C.2	1	UNK0	0.000	
26	  C6	-11.180	206.760	115.290	C.2	1	UNK0	0.000	
27	  C7	-9.820	207.070	115.270	C.2	1	UNK0	0.000	
28	  O2	-7.750	207.380	114.190	O.3	1	UNK0	0.000	
29	  C8	-7.170	208.470	112.120	C.3	1	UNK0	0.000	
30	  C9	-7.020	207.240	112.950	C.3	1	UNK0	0.000	
31	 C10	-5.550	207.080	113.340	C.3	1	UNK0	0.000	
32	  S1	-14.930	204.030	113.620	S.o2	1	UNK0	0.000	
33	  O3	-14.680	202.880	112.790	O.2	1	UNK0	0.000	
34	  O4	-15.090	203.880	115.050	O.2	1	UNK0	0.000	
35	 C11	-16.370	204.930	112.930	C.2	1	UNK0	0.000	
36	 C12	-17.620	204.270	112.980	C.2	1	UNK0	0.000	
37	 C13	-18.740	204.920	112.470	C.2	1	UNK0	0.000	
38	 C14	-18.650	206.190	111.910	C.2	1	UNK0	0.000	
39	 C15	-17.430	206.850	111.920	C.2	1	UNK0	0.000	
40	 C16	-16.270	206.220	112.400	C.2	1	UNK0	0.000	
41	  N2	-19.780	206.910	111.660	N.pl3	1	UNK0	0.000	
@<TRIPOS>BOND
1 19 20 2
2 19 21 1
3 19 25 1
4 3 21 1
5 21 32 1
6 22 23 2
7 22 27 1
8 22 28 1
9 6 23 1
10 23 24 1
11 5 24 1
12 24 25 2
13 25 26 1
14 10 26 1
15 26 27 2
16 8 27 1
17 28 30 1
18 7 29 1
19 9 29 1
20 13 29 1
21 29 30 1
22 12 30 1
23 30 31 1
24 1 31 1
25 11 31 1
26 14 31 1
27 32 33 2
28 32 34 2
29 32 35 1
30 35 36 2
31 35 40 1
32 17 36 1
33 36 37 1
34 16 37 1
35 37 38 2
36 38 39 1
37 38 41 1
38 15 39 1
39 39 40 2
40 18 40 1
41 2 41 1
42 4 41 1
@<TRIPOS>SUBSTRUCTURE
1	UNK0	1	GROUP	1 ****	UNK
