@<TRIPOS>MOLECULE
ZINC00002103
 23 24 0 0 0
SMALL
USER_CHARGES

@<TRIPOS>ATOM
      1 C1        -10.2300  207.0200  113.7500 C.2     1  UNK01       0.0000
      2 O1        -10.7200  206.3300  114.6400 O.2     1  UNK01       0.0000
      3 N1        -10.7100  206.9900  112.4500 N.am    1  UNK01       0.0000
      4 C2         -6.3900  208.8800  114.1900 C.2     1  UNK01       0.0000
      5 C3         -7.2000  209.2400  113.1200 C.2     1  UNK01       0.0000
      6 C4         -8.4800  208.7000  112.9800 C.2     1  UNK01       0.0000
      7 C5         -8.9500  207.7700  113.9300 C.2     1  UNK01       0.0000
      8 C6         -8.1400  207.4300  115.0300 C.2     1  UNK01       0.0000
      9 C7         -6.8700  207.9900  115.1700 C.2     1  UNK01       0.0000
     10 O2         -5.1100  209.4300  114.1600 O.2     1  UNK01       0.0000
     11 C8         -2.9100  209.5700  115.0000 C.3     1  UNK01       0.0000
     12 C9         -4.3300  209.1900  115.3300 C.3     1  UNK01       0.0000
     13 C10        -4.8100  210.0600  116.4700 C.3     1  UNK01       0.0000
     14 S1        -11.2200  205.6000  111.8000 S.O2    1  UNK01       0.0000
     15 O3        -10.8300  205.8000  110.4200 O.2     1  UNK01       0.0000
     16 O4        -10.7300  204.4600  112.5400 O.2     1  UNK01       0.0000
     17 C11       -13.0200  205.6800  111.9300 C.2     1  UNK01       0.0000
     18 C12       -13.6300  205.4600  113.1800 C.2     1  UNK01       0.0000
     19 C13       -15.0300  205.3500  113.2400 C.2     1  UNK01       0.0000
     20 C14       -15.7900  205.4100  112.0800 C.2     1  UNK01       0.0000
     21 C15       -15.1900  205.7200  110.8700 C.2     1  UNK01       0.0000
     22 C16       -13.8000  205.8300  110.7700 C.2     1  UNK01       0.0000
     23 N2        -17.1900  205.3900  112.1700 N.pl3   1  UNK01       0.0000
@<TRIPOS>BOND
     1     1     2    2
     2     1     3   am
     3     1     7    1
     4     3    14    1
     5     4     5    2
     6     4     9    1
     7     4    10    1
     8     5     6    1
     9     6     7    2
    10     7     8    1
    11     8     9    2
    12    10    12    1
    13    11    12    1
    14    12    13    1
    15    14    15    2
    16    14    16    2
    17    14    17    1
    18    17    18    2
    19    17    22    1
    20    18    19    1
    21    19    20    2
    22    20    21    1
    23    20    23    1
    24    21    22    2
