@<TRIPOS>MOLECULE
ZINC00002103
 23 24 0 0 0
SMALL
USER_CHARGES

@<TRIPOS>ATOM
      1 C1        -10.0900  207.0100  113.4700 C.2     1  UNK01       0.0000
      2 O1        -10.7200  206.0100  113.7500 O.2     1  UNK01       0.0000
      3 N1        -10.4600  207.8200  112.3800 N.am    1  UNK01       0.0000
      4 C2         -6.8100  207.9800  116.0200 C.2     1  UNK01       0.0000
      5 C3         -6.9100  208.6600  114.8000 C.2     1  UNK01       0.0000
      6 C4         -8.0000  208.4100  113.9600 C.2     1  UNK01       0.0000
      7 C5         -9.0000  207.5000  114.3600 C.2     1  UNK01       0.0000
      8 C6         -8.9100  206.8800  115.6200 C.2     1  UNK01       0.0000
      9 C7         -7.8200  207.1300  116.4500 C.2     1  UNK01       0.0000
     10 O2         -5.6800  208.2700  116.7800 O.2     1  UNK01       0.0000
     11 C8         -4.7200  206.0600  116.4200 C.3     1  UNK01       0.0000
     12 C9         -5.1700  207.0700  117.4400 C.3     1  UNK01       0.0000
     13 C10        -3.9700  207.5100  118.2500 C.3     1  UNK01       0.0000
     14 S1        -11.4000  207.1800  111.2200 S.O2    1  UNK01       0.0000
     15 O3        -11.5200  208.2600  110.2600 O.2     1  UNK01       0.0000
     16 O4        -10.8200  205.9200  110.8200 O.2     1  UNK01       0.0000
     17 C11       -13.0500  206.8700  111.9100 C.2     1  UNK01       0.0000
     18 C12       -13.3600  207.0100  113.2800 C.2     1  UNK01       0.0000
     19 C13       -14.6300  206.6400  113.7400 C.2     1  UNK01       0.0000
     20 C14       -15.5900  206.1600  112.8500 C.2     1  UNK01       0.0000
     21 C15       -15.3100  206.1400  111.4900 C.2     1  UNK01       0.0000
     22 C16       -14.0300  206.4300  111.0100 C.2     1  UNK01       0.0000
     23 N2        -16.9000  206.0000  113.2700 N.pl3   1  UNK01       0.0000
@<TRIPOS>BOND
     1     1     2    2
     2     1     3   am
     3     1     7    1
     4     3    14    1
     5     4     5    2
     6     4     9    1
     7     4    10    1
     8     5     6    1
     9     6     7    2
    10     7     8    1
    11     8     9    2
    12    10    12    1
    13    11    12    1
    14    12    13    1
    15    14    15    2
    16    14    16    2
    17    14    17    1
    18    17    18    2
    19    17    22    1
    20    18    19    1
    21    19    20    2
    22    20    21    1
    23    20    23    1
    24    21    22    2
