# created with PyMOL 2.5.0
@<TRIPOS>MOLECULE
ZINC00002103
41 42 1                 
SMALL
USER_CHARGES
@<TRIPOS>ATOM
1	 H12	-5.150	207.660	114.370	 H	1	UNK0	0.000	
2	 H17	-20.360	207.110	111.720	 H	1	UNK0	0.000	
3	 H01	-12.950	204.320	112.200	 H	1	UNK0	0.000	
4	 H18	-19.380	207.730	110.520	 H	1	UNK0	0.000	
5	 H03	-12.140	206.700	111.460	 H	1	UNK0	0.000	
6	 H02	-9.940	207.760	110.960	 H	1	UNK0	0.000	
7	 H06	-5.040	206.490	112.060	 H	1	UNK0	0.000	
8	 H05	-8.590	206.880	114.930	 H	1	UNK0	0.000	
9	 H07	-6.550	206.310	111.130	 H	1	UNK0	0.000	
10	 H04	-10.770	205.830	115.480	 H	1	UNK0	0.000	
11	 H10	-5.520	209.050	113.340	 H	1	UNK0	0.000	
12	 H09	-7.000	206.400	113.550	 H	1	UNK0	0.000	
13	 H08	-5.750	207.870	111.200	 H	1	UNK0	0.000	
14	 H11	-6.580	208.670	114.700	 H	1	UNK0	0.000	
15	 H15	-17.170	207.460	110.470	 H	1	UNK0	0.000	
16	 H14	-19.390	205.970	113.660	 H	1	UNK0	0.000	
17	 H13	-17.350	204.920	114.620	 H	1	UNK0	0.000	
18	 H16	-15.150	206.110	111.080	 H	1	UNK0	0.000	
19	  C1	-12.930	205.620	113.870	C.2	1	UNK0	0.000	
20	  O1	-13.510	205.930	114.890	O.2	1	UNK0	0.000	
21	  N1	-13.470	204.730	112.960	N.pl3	1	UNK0	0.000	
22	  C2	-9.130	207.320	112.890	C.2	1	UNK0	0.000	
23	  C3	-10.130	207.290	111.920	C.2	1	UNK0	0.000	
24	  C4	-11.360	206.690	112.210	C.2	1	UNK0	0.000	
25	  C5	-11.590	206.160	113.490	C.2	1	UNK0	0.000	
26	  C6	-10.590	206.210	114.480	C.2	1	UNK0	0.000	
27	  C7	-9.350	206.790	114.170	C.2	1	UNK0	0.000	
28	  O2	-7.970	208.020	112.580	O.3	1	UNK0	0.000	
29	  C8	-5.980	206.980	111.780	C.3	1	UNK0	0.000	
30	  C9	-6.780	207.330	113.010	C.3	1	UNK0	0.000	
31	 C10	-5.960	208.230	113.910	C.3	1	UNK0	0.000	
32	  S1	-14.910	204.010	113.190	S.o2	1	UNK0	0.000	
33	  O3	-14.970	203.030	112.130	O.2	1	UNK0	0.000	
34	  O4	-15.100	203.560	114.550	O.2	1	UNK0	0.000	
35	 C11	-16.160	205.290	112.830	C.2	1	UNK0	0.000	
36	 C12	-17.320	205.360	113.630	C.2	1	UNK0	0.000	
37	 C13	-18.460	206.000	113.120	C.2	1	UNK0	0.000	
38	 C14	-18.410	206.680	111.920	C.2	1	UNK0	0.000	
39	 C15	-17.190	206.800	111.290	C.2	1	UNK0	0.000	
40	 C16	-16.060	206.060	111.670	C.2	1	UNK0	0.000	
41	  N2	-19.440	207.510	111.510	N.pl3	1	UNK0	0.000	
@<TRIPOS>BOND
1 19 20 2
2 19 21 1
3 19 25 1
4 3 21 1
5 21 32 1
6 22 23 2
7 22 27 1
8 22 28 1
9 6 23 1
10 23 24 1
11 5 24 1
12 24 25 2
13 25 26 1
14 10 26 1
15 26 27 2
16 8 27 1
17 28 30 1
18 7 29 1
19 9 29 1
20 13 29 1
21 29 30 1
22 12 30 1
23 30 31 1
24 1 31 1
25 11 31 1
26 14 31 1
27 32 33 2
28 32 34 2
29 32 35 1
30 35 36 2
31 35 40 1
32 17 36 1
33 36 37 1
34 16 37 1
35 37 38 2
36 38 39 1
37 38 41 1
38 15 39 1
39 39 40 2
40 18 40 1
41 2 41 1
42 4 41 1
@<TRIPOS>SUBSTRUCTURE
1	UNK0	1	GROUP	1 ****	UNK
