# created with PyMOL 2.5.0
@<TRIPOS>MOLECULE
ZINC00002103
41 42 1                 
SMALL
USER_CHARGES
@<TRIPOS>ATOM
1	 H12	-5.400	206.950	118.080	 H	1	UNK0	0.000	
2	 H17	-19.330	207.100	111.430	 H	1	UNK0	0.000	
3	 H01	-14.810	204.950	116.020	 H	1	UNK0	0.000	
4	 H18	-18.320	208.390	110.990	 H	1	UNK0	0.000	
5	 H03	-12.500	207.650	115.570	 H	1	UNK0	0.000	
6	 H02	-10.490	209.050	115.920	 H	1	UNK0	0.000	
7	 H06	-6.680	208.900	115.160	 H	1	UNK0	0.000	
8	 H05	-8.560	205.790	117.960	 H	1	UNK0	0.000	
9	 H07	-6.030	209.570	116.650	 H	1	UNK0	0.000	
10	 H04	-10.560	204.380	117.640	 H	1	UNK0	0.000	
11	 H10	-6.210	208.370	118.770	 H	1	UNK0	0.000	
12	 H09	-7.170	206.760	116.340	 H	1	UNK0	0.000	
13	 H08	-5.220	208.190	115.890	 H	1	UNK0	0.000	
14	 H11	-6.980	206.800	118.890	 H	1	UNK0	0.000	
15	 H15	-16.040	208.490	111.570	 H	1	UNK0	0.000	
16	 H14	-18.670	205.440	112.990	 H	1	UNK0	0.000	
17	 H13	-16.760	204.290	114.070	 H	1	UNK0	0.000	
18	 H16	-14.090	207.330	112.580	 H	1	UNK0	0.000	
19	  C1	-12.880	205.030	116.460	C.2	1	UNK0	0.000	
20	  O1	-12.940	203.950	117.050	O.2	1	UNK0	0.000	
21	  N1	-13.950	205.440	115.690	N.pl3	1	UNK0	0.000	
22	  C2	-9.390	207.500	116.940	C.2	1	UNK0	0.000	
23	  C3	-10.510	208.020	116.280	C.2	1	UNK0	0.000	
24	  C4	-11.640	207.230	116.080	C.2	1	UNK0	0.000	
25	  C5	-11.670	205.900	116.560	C.2	1	UNK0	0.000	
26	  C6	-10.540	205.390	117.240	C.2	1	UNK0	0.000	
27	  C7	-9.410	206.180	117.420	C.2	1	UNK0	0.000	
28	  O2	-8.310	208.350	117.150	O.3	1	UNK0	0.000	
29	  C8	-6.190	208.640	116.110	C.3	1	UNK0	0.000	
30	  C9	-7.060	207.690	116.910	C.3	1	UNK0	0.000	
31	 C10	-6.370	207.430	118.240	C.3	1	UNK0	0.000	
32	  S1	-13.920	204.840	114.170	S.o2	1	UNK0	0.000	
33	  O3	-12.690	205.260	113.550	O.2	1	UNK0	0.000	
34	  O4	-14.280	203.440	114.250	O.2	1	UNK0	0.000	
35	 C11	-15.300	205.710	113.380	C.2	1	UNK0	0.000	
36	 C12	-16.590	205.170	113.470	C.2	1	UNK0	0.000	
37	 C13	-17.660	205.820	112.860	C.2	1	UNK0	0.000	
38	 C14	-17.450	206.980	112.120	C.2	1	UNK0	0.000	
39	 C15	-16.180	207.530	112.060	C.2	1	UNK0	0.000	
40	 C16	-15.080	206.890	112.650	C.2	1	UNK0	0.000	
41	  N2	-18.560	207.710	111.700	N.pl3	1	UNK0	0.000	
@<TRIPOS>BOND
1 19 20 2
2 19 21 1
3 19 25 1
4 3 21 1
5 21 32 1
6 22 23 2
7 22 27 1
8 22 28 1
9 6 23 1
10 23 24 1
11 5 24 1
12 24 25 2
13 25 26 1
14 10 26 1
15 26 27 2
16 8 27 1
17 28 30 1
18 7 29 1
19 9 29 1
20 13 29 1
21 29 30 1
22 12 30 1
23 30 31 1
24 1 31 1
25 11 31 1
26 14 31 1
27 32 33 2
28 32 34 2
29 32 35 1
30 35 36 2
31 35 40 1
32 17 36 1
33 36 37 1
34 16 37 1
35 37 38 2
36 38 39 1
37 38 41 1
38 15 39 1
39 39 40 2
40 18 40 1
41 2 41 1
42 4 41 1
@<TRIPOS>SUBSTRUCTURE
1	UNK0	1	GROUP	1 ****	UNK
