# created with PyMOL 2.5.0
@<TRIPOS>MOLECULE
ZINC00002103
41 42 1                 
SMALL
USER_CHARGES
@<TRIPOS>ATOM
1	 H12	-6.900	209.390	115.770	 H	1	UNK0	0.000	
2	 H17	-20.260	207.930	110.900	 H	1	UNK0	0.000	
3	 H01	-15.540	205.900	115.050	 H	1	UNK0	0.000	
4	 H18	-19.020	208.610	109.970	 H	1	UNK0	0.000	
5	 H03	-11.890	208.060	113.350	 H	1	UNK0	0.000	
6	 H02	-9.540	208.120	113.950	 H	1	UNK0	0.000	
7	 H06	-6.750	206.000	113.730	 H	1	UNK0	0.000	
8	 H05	-10.120	204.870	116.720	 H	1	UNK0	0.000	
9	 H07	-7.970	207.110	113.140	 H	1	UNK0	0.000	
10	 H04	-12.530	204.780	116.110	 H	1	UNK0	0.000	
11	 H10	-8.090	209.320	114.500	 H	1	UNK0	0.000	
12	 H09	-6.490	207.230	115.800	 H	1	UNK0	0.000	
13	 H08	-6.320	207.690	113.410	 H	1	UNK0	0.000	
14	 H11	-8.570	208.980	116.180	 H	1	UNK0	0.000	
15	 H15	-16.770	208.020	110.200	 H	1	UNK0	0.000	
16	 H14	-19.800	206.560	112.820	 H	1	UNK0	0.000	
17	 H13	-18.170	205.010	113.880	 H	1	UNK0	0.000	
18	 H16	-15.080	206.580	111.280	 H	1	UNK0	0.000	
19	  C1	-13.830	206.500	114.310	C.2	1	UNK0	0.000	
20	  O1	-14.270	207.400	113.620	O.2	1	UNK0	0.000	
21	  N1	-14.660	205.460	114.710	N.pl3	1	UNK0	0.000	
22	  C2	-9.670	206.500	115.390	C.2	1	UNK0	0.000	
23	  C3	-10.170	207.390	114.430	C.2	1	UNK0	0.000	
24	  C4	-11.520	207.350	114.080	C.2	1	UNK0	0.000	
25	  C5	-12.380	206.410	114.680	C.2	1	UNK0	0.000	
26	  C6	-11.870	205.510	115.630	C.2	1	UNK0	0.000	
27	  C7	-10.520	205.550	115.980	C.2	1	UNK0	0.000	
28	  O2	-8.350	206.460	115.850	O.3	1	UNK0	0.000	
29	  C8	-7.100	207.030	113.800	C.3	1	UNK0	0.000	
30	  C9	-7.420	207.380	115.240	C.3	1	UNK0	0.000	
31	 C10	-7.790	208.840	115.430	C.3	1	UNK0	0.000	
32	  S1	-15.270	204.610	113.450	S.o2	1	UNK0	0.000	
33	  O3	-14.220	204.360	112.500	O.2	1	UNK0	0.000	
34	  O4	-16.010	203.500	114.020	O.2	1	UNK0	0.000	
35	 C11	-16.500	205.720	112.680	C.2	1	UNK0	0.000	
36	 C12	-17.840	205.690	113.090	C.2	1	UNK0	0.000	
37	 C13	-18.770	206.530	112.480	C.2	1	UNK0	0.000	
38	 C14	-18.400	207.330	111.400	C.2	1	UNK0	0.000	
39	 C15	-17.070	207.360	111.010	C.2	1	UNK0	0.000	
40	 C16	-16.110	206.550	111.610	C.2	1	UNK0	0.000	
41	  N2	-19.300	208.250	110.900	N.pl3	1	UNK0	0.000	
@<TRIPOS>BOND
1 19 20 2
2 19 21 1
3 19 25 1
4 3 21 1
5 21 32 1
6 22 23 2
7 22 27 1
8 22 28 1
9 6 23 1
10 23 24 1
11 5 24 1
12 24 25 2
13 25 26 1
14 10 26 1
15 26 27 2
16 8 27 1
17 28 30 1
18 7 29 1
19 9 29 1
20 13 29 1
21 29 30 1
22 12 30 1
23 30 31 1
24 1 31 1
25 11 31 1
26 14 31 1
27 32 33 2
28 32 34 2
29 32 35 1
30 35 36 2
31 35 40 1
32 17 36 1
33 36 37 1
34 16 37 1
35 37 38 2
36 38 39 1
37 38 41 1
38 15 39 1
39 39 40 2
40 18 40 1
41 2 41 1
42 4 41 1
@<TRIPOS>SUBSTRUCTURE
1	UNK0	1	GROUP	1 ****	UNK
