# created with PyMOL 2.5.0
@<TRIPOS>MOLECULE
ZINC00002103
41 42 1                 
SMALL
USER_CHARGES
@<TRIPOS>ATOM
1	 H12	-8.730	209.240	116.740	 H	1	UNK0	0.000	
2	 H17	-20.760	205.430	111.980	 H	1	UNK0	0.000	
3	 H01	-12.900	206.190	111.820	 H	1	UNK0	0.000	
4	 H18	-20.410	206.740	110.870	 H	1	UNK0	0.000	
5	 H03	-11.690	207.780	112.010	 H	1	UNK0	0.000	
6	 H02	-9.450	208.810	112.270	 H	1	UNK0	0.000	
7	 H06	-5.090	208.790	116.040	 H	1	UNK0	0.000	
8	 H05	-9.080	207.090	116.190	 H	1	UNK0	0.000	
9	 H07	-5.300	208.230	114.360	 H	1	UNK0	0.000	
10	 H04	-11.310	206.080	115.990	 H	1	UNK0	0.000	
11	 H10	-7.090	209.380	117.410	 H	1	UNK0	0.000	
12	 H09	-7.150	207.450	115.780	 H	1	UNK0	0.000	
13	 H08	-5.660	209.900	114.770	 H	1	UNK0	0.000	
14	 H11	-7.640	210.470	116.130	 H	1	UNK0	0.000	
15	 H15	-18.140	207.040	110.080	 H	1	UNK0	0.000	
16	 H14	-19.150	204.260	113.100	 H	1	UNK0	0.000	
17	 H13	-16.750	203.850	113.600	 H	1	UNK0	0.000	
18	 H16	-15.710	206.640	110.440	 H	1	UNK0	0.000	
19	  C1	-13.000	206.170	113.890	C.2	1	UNK0	0.000	
20	  O1	-13.580	205.740	114.880	O.2	1	UNK0	0.000	
21	  N1	-13.510	206.020	112.610	N.pl3	1	UNK0	0.000	
22	  C2	-9.130	208.020	114.220	C.2	1	UNK0	0.000	
23	  C3	-9.870	208.200	113.060	C.2	1	UNK0	0.000	
24	  C4	-11.130	207.610	112.920	C.2	1	UNK0	0.000	
25	  C5	-11.670	206.840	113.980	C.2	1	UNK0	0.000	
26	  C6	-10.920	206.680	115.160	C.2	1	UNK0	0.000	
27	  C7	-9.650	207.250	115.280	C.2	1	UNK0	0.000	
28	  O2	-7.880	208.630	114.220	O.3	1	UNK0	0.000	
29	  C8	-5.720	208.870	115.140	C.3	1	UNK0	0.000	
30	  C9	-7.140	208.490	115.440	C.3	1	UNK0	0.000	
31	 C10	-7.680	209.440	116.500	C.3	1	UNK0	0.000	
32	  S1	-14.360	204.700	112.190	S.o2	1	UNK0	0.000	
33	  O3	-13.870	204.490	110.850	O.2	1	UNK0	0.000	
34	  O4	-14.270	203.660	113.180	O.2	1	UNK0	0.000	
35	 C11	-16.070	205.270	112.090	C.2	1	UNK0	0.000	
36	 C12	-17.030	204.590	112.850	C.2	1	UNK0	0.000	
37	 C13	-18.380	204.820	112.590	C.2	1	UNK0	0.000	
38	 C14	-18.770	205.780	111.670	C.2	1	UNK0	0.000	
39	 C15	-17.810	206.430	110.900	C.2	1	UNK0	0.000	
40	 C16	-16.450	206.180	111.100	C.2	1	UNK0	0.000	
41	  N2	-20.110	205.870	111.300	N.pl3	1	UNK0	0.000	
@<TRIPOS>BOND
1 19 20 2
2 19 21 1
3 19 25 1
4 3 21 1
5 21 32 1
6 22 23 2
7 22 27 1
8 22 28 1
9 6 23 1
10 23 24 1
11 5 24 1
12 24 25 2
13 25 26 1
14 10 26 1
15 26 27 2
16 8 27 1
17 28 30 1
18 7 29 1
19 9 29 1
20 13 29 1
21 29 30 1
22 12 30 1
23 30 31 1
24 1 31 1
25 11 31 1
26 14 31 1
27 32 33 2
28 32 34 2
29 32 35 1
30 35 36 2
31 35 40 1
32 17 36 1
33 36 37 1
34 16 37 1
35 37 38 2
36 38 39 1
37 38 41 1
38 15 39 1
39 39 40 2
40 18 40 1
41 2 41 1
42 4 41 1
@<TRIPOS>SUBSTRUCTURE
1	UNK0	1	GROUP	1 ****	UNK
