@<TRIPOS>MOLECULE
ZINC00002103
 23 24 0 0 0
SMALL
USER_CHARGES

@<TRIPOS>ATOM
      1 C1        -13.0000  206.1700  113.8900 C.2     1  UNK01       0.0000
      2 O1        -13.5800  205.7400  114.8800 O.2     1  UNK01       0.0000
      3 N1        -13.5100  206.0200  112.6100 N.am    1  UNK01       0.0000
      4 C2         -9.1300  208.0200  114.2200 C.2     1  UNK01       0.0000
      5 C3         -9.8700  208.2000  113.0600 C.2     1  UNK01       0.0000
      6 C4        -11.1300  207.6100  112.9200 C.2     1  UNK01       0.0000
      7 C5        -11.6700  206.8400  113.9800 C.2     1  UNK01       0.0000
      8 C6        -10.9200  206.6800  115.1600 C.2     1  UNK01       0.0000
      9 C7         -9.6500  207.2500  115.2800 C.2     1  UNK01       0.0000
     10 O2         -7.8800  208.6300  114.2200 O.2     1  UNK01       0.0000
     11 C8         -5.7200  208.8700  115.1400 C.3     1  UNK01       0.0000
     12 C9         -7.1400  208.4900  115.4400 C.3     1  UNK01       0.0000
     13 C10        -7.6800  209.4400  116.5000 C.3     1  UNK01       0.0000
     14 S1        -14.3600  204.7000  112.1900 S.O2    1  UNK01       0.0000
     15 O3        -13.8700  204.4900  110.8500 O.2     1  UNK01       0.0000
     16 O4        -14.2700  203.6600  113.1800 O.2     1  UNK01       0.0000
     17 C11       -16.0700  205.2700  112.0900 C.2     1  UNK01       0.0000
     18 C12       -17.0300  204.5900  112.8500 C.2     1  UNK01       0.0000
     19 C13       -18.3800  204.8200  112.5900 C.2     1  UNK01       0.0000
     20 C14       -18.7700  205.7800  111.6700 C.2     1  UNK01       0.0000
     21 C15       -17.8100  206.4300  110.9000 C.2     1  UNK01       0.0000
     22 C16       -16.4500  206.1800  111.1000 C.2     1  UNK01       0.0000
     23 N2        -20.1100  205.8700  111.3000 N.pl3   1  UNK01       0.0000
@<TRIPOS>BOND
     1     1     2    2
     2     1     3   am
     3     1     7    1
     4     3    14    1
     5     4     5    2
     6     4     9    1
     7     4    10    1
     8     5     6    1
     9     6     7    2
    10     7     8    1
    11     8     9    2
    12    10    12    1
    13    11    12    1
    14    12    13    1
    15    14    15    2
    16    14    16    2
    17    14    17    1
    18    17    18    2
    19    17    22    1
    20    18    19    1
    21    19    20    2
    22    20    21    1
    23    20    23    1
    24    21    22    2
