# created with PyMOL 2.5.0
@<TRIPOS>MOLECULE
ZINC00002103
41 42 1                 
SMALL
USER_CHARGES
@<TRIPOS>ATOM
1	 H12	-6.140	206.910	117.730	 H	1	UNK0	0.000	
2	 H17	-20.540	207.620	113.410	 H	1	UNK0	0.000	
3	 H01	-13.850	206.290	114.510	 H	1	UNK0	0.000	
4	 H18	-20.190	207.410	111.760	 H	1	UNK0	0.000	
5	 H03	-12.710	207.800	115.720	 H	1	UNK0	0.000	
6	 H02	-10.550	208.980	115.460	 H	1	UNK0	0.000	
7	 H06	-4.930	207.830	115.800	 H	1	UNK0	0.000	
8	 H05	-8.450	205.230	115.610	 H	1	UNK0	0.000	
9	 H07	-5.810	208.330	114.330	 H	1	UNK0	0.000	
10	 H04	-10.580	204.020	115.870	 H	1	UNK0	0.000	
11	 H10	-7.290	208.270	117.740	 H	1	UNK0	0.000	
12	 H09	-6.860	206.350	115.370	 H	1	UNK0	0.000	
13	 H08	-6.020	209.240	115.820	 H	1	UNK0	0.000	
14	 H11	-7.890	206.620	117.680	 H	1	UNK0	0.000	
15	 H15	-17.990	206.690	111.020	 H	1	UNK0	0.000	
16	 H14	-19.170	206.910	115.120	 H	1	UNK0	0.000	
17	 H13	-17.150	205.670	115.810	 H	1	UNK0	0.000	
18	 H16	-15.940	205.460	111.640	 H	1	UNK0	0.000	
19	  C1	-13.060	205.010	115.860	C.2	1	UNK0	0.000	
20	  O1	-13.030	203.850	116.220	O.2	1	UNK0	0.000	
21	  N1	-14.130	205.540	115.130	N.pl3	1	UNK0	0.000	
22	  C2	-9.370	207.190	115.500	C.2	1	UNK0	0.000	
23	  C3	-10.580	207.890	115.530	C.2	1	UNK0	0.000	
24	  C4	-11.790	207.220	115.680	C.2	1	UNK0	0.000	
25	  C5	-11.800	205.810	115.790	C.2	1	UNK0	0.000	
26	  C6	-10.580	205.110	115.780	C.2	1	UNK0	0.000	
27	  C7	-9.380	205.790	115.630	C.2	1	UNK0	0.000	
28	  O2	-8.220	207.940	115.270	O.3	1	UNK0	0.000	
29	  C8	-5.880	208.230	115.420	C.3	1	UNK0	0.000	
30	  C9	-7.030	207.340	115.810	C.3	1	UNK0	0.000	
31	 C10	-7.090	207.280	117.330	C.3	1	UNK0	0.000	
32	  S1	-15.000	204.470	114.260	S.o2	1	UNK0	0.000	
33	  O3	-14.190	204.220	113.080	O.2	1	UNK0	0.000	
34	  O4	-15.530	203.400	115.060	O.2	1	UNK0	0.000	
35	 C11	-16.410	205.470	113.760	C.2	1	UNK0	0.000	
36	 C12	-17.320	205.870	114.760	C.2	1	UNK0	0.000	
37	 C13	-18.470	206.560	114.360	C.2	1	UNK0	0.000	
38	 C14	-18.750	206.800	113.020	C.2	1	UNK0	0.000	
39	 C15	-17.810	206.440	112.060	C.2	1	UNK0	0.000	
40	 C16	-16.640	205.770	112.410	C.2	1	UNK0	0.000	
41	  N2	-19.810	207.630	112.680	N.pl3	1	UNK0	0.000	
@<TRIPOS>BOND
1 19 20 2
2 19 21 1
3 19 25 1
4 3 21 1
5 21 32 1
6 22 23 2
7 22 27 1
8 22 28 1
9 6 23 1
10 23 24 1
11 5 24 1
12 24 25 2
13 25 26 1
14 10 26 1
15 26 27 2
16 8 27 1
17 28 30 1
18 7 29 1
19 9 29 1
20 13 29 1
21 29 30 1
22 12 30 1
23 30 31 1
24 1 31 1
25 11 31 1
26 14 31 1
27 32 33 2
28 32 34 2
29 32 35 1
30 35 36 2
31 35 40 1
32 17 36 1
33 36 37 1
34 16 37 1
35 37 38 2
36 38 39 1
37 38 41 1
38 15 39 1
39 39 40 2
40 18 40 1
41 2 41 1
42 4 41 1
@<TRIPOS>SUBSTRUCTURE
1	UNK0	1	GROUP	1 ****	UNK
