@<TRIPOS>MOLECULE
ZINC00002103
 23 24 0 0 0
SMALL
USER_CHARGES

@<TRIPOS>ATOM
      1 C1        -12.1500  205.9400  112.7300 C.2     1  UNK01       0.0000
      2 O1        -13.1100  205.4400  113.2900 O.2     1  UNK01       0.0000
      3 N1        -12.0300  205.9000  111.3400 N.am    1  UNK01       0.0000
      4 C2         -8.8200  207.2700  115.1200 C.2     1  UNK01       0.0000
      5 C3         -9.9000  206.6000  115.6800 C.2     1  UNK01       0.0000
      6 C4        -10.9900  206.2000  114.8900 C.2     1  UNK01       0.0000
      7 C5        -10.9900  206.4800  113.5200 C.2     1  UNK01       0.0000
      8 C6         -9.9100  207.1900  112.9400 C.2     1  UNK01       0.0000
      9 C7         -8.8300  207.5800  113.7400 C.2     1  UNK01       0.0000
     10 O2         -7.8100  207.5900  116.0100 O.2     1  UNK01       0.0000
     11 C8         -5.7500  208.6700  116.4700 C.3     1  UNK01       0.0000
     12 C9         -6.6000  208.0500  115.3900 C.3     1  UNK01       0.0000
     13 C10        -5.8400  206.8900  114.7800 C.3     1  UNK01       0.0000
     14 S1        -13.1100  205.0600  110.4500 S.O2    1  UNK01       0.0000
     15 O3        -12.7900  205.3600  109.0800 O.2     1  UNK01       0.0000
     16 O4        -13.1000  203.6800  110.9000 O.2     1  UNK01       0.0000
     17 C11       -14.7000  205.8200  110.8000 C.2     1  UNK01       0.0000
     18 C12       -15.6100  205.1600  111.6300 C.2     1  UNK01       0.0000
     19 C13       -16.9000  205.6900  111.7800 C.2     1  UNK01       0.0000
     20 C14       -17.2400  206.8800  111.1400 C.2     1  UNK01       0.0000
     21 C15       -16.3600  207.4900  110.2600 C.2     1  UNK01       0.0000
     22 C16       -15.0700  206.9800  110.0900 C.2     1  UNK01       0.0000
     23 N2        -18.5500  207.3200  111.2200 N.pl3   1  UNK01       0.0000
@<TRIPOS>BOND
     1     1     2    2
     2     1     3   am
     3     1     7    1
     4     3    14    1
     5     4     5    2
     6     4     9    1
     7     4    10    1
     8     5     6    1
     9     6     7    2
    10     7     8    1
    11     8     9    2
    12    10    12    1
    13    11    12    1
    14    12    13    1
    15    14    15    2
    16    14    16    2
    17    14    17    1
    18    17    18    2
    19    17    22    1
    20    18    19    1
    21    19    20    2
    22    20    21    1
    23    20    23    1
    24    21    22    2
