@<TRIPOS>MOLECULE
ZINC00002103
 23 24 0 0 0
SMALL
USER_CHARGES

@<TRIPOS>ATOM
      1 C1        -12.5100  206.6000  115.2500 C.2     1  UNK01       0.0000
      2 O1        -13.3000  207.0800  116.0500 O.2     1  UNK01       0.0000
      3 N1        -12.8200  205.4900  114.4700 N.am    1  UNK01       0.0000
      4 C2         -8.3700  207.7200  115.2000 C.2     1  UNK01       0.0000
      5 C3         -8.9000  207.0700  114.0900 C.2     1  UNK01       0.0000
      6 C4        -10.2600  206.7300  114.0600 C.2     1  UNK01       0.0000
      7 C5        -11.0900  207.0600  115.1600 C.2     1  UNK01       0.0000
      8 C6        -10.5600  207.8000  116.2300 C.2     1  UNK01       0.0000
      9 C7         -9.2000  208.1300  116.2500 C.2     1  UNK01       0.0000
     10 O2         -6.9900  207.9100  115.1600 O.2     1  UNK01       0.0000
     11 C8         -5.0000  207.7600  116.4600 C.3     1  UNK01       0.0000
     12 C9         -6.4200  208.2700  116.4400 C.3     1  UNK01       0.0000
     13 C10        -6.3900  209.7700  116.5700 C.3     1  UNK01       0.0000
     14 S1        -13.9800  204.4200  114.8700 S.O2    1  UNK01       0.0000
     15 O3        -13.4400  203.1600  114.4000 O.2     1  UNK01       0.0000
     16 O4        -14.4000  204.5700  116.2400 O.2     1  UNK01       0.0000
     17 C11       -15.3500  204.8200  113.7700 C.2     1  UNK01       0.0000
     18 C12       -16.6700  204.6700  114.2400 C.2     1  UNK01       0.0000
     19 C13       -17.7200  204.9100  113.3600 C.2     1  UNK01       0.0000
     20 C14       -17.4800  205.4000  112.0800 C.2     1  UNK01       0.0000
     21 C15       -16.1800  205.4100  111.5900 C.2     1  UNK01       0.0000
     22 C16       -15.1000  205.1500  112.4300 C.2     1  UNK01       0.0000
     23 N2        -18.5500  205.6500  111.2400 N.pl3   1  UNK01       0.0000
@<TRIPOS>BOND
     1     1     2    2
     2     1     3   am
     3     1     7    1
     4     3    14    1
     5     4     5    2
     6     4     9    1
     7     4    10    1
     8     5     6    1
     9     6     7    2
    10     7     8    1
    11     8     9    2
    12    10    12    1
    13    11    12    1
    14    12    13    1
    15    14    15    2
    16    14    16    2
    17    14    17    1
    18    17    18    2
    19    17    22    1
    20    18    19    1
    21    19    20    2
    22    20    21    1
    23    20    23    1
    24    21    22    2
