# created with PyMOL 2.5.0
@<TRIPOS>MOLECULE
ZINC00002103
41 42 1                 
SMALL
USER_CHARGES
@<TRIPOS>ATOM
1	 H12	-7.300	205.520	114.330	 H	1	UNK0	0.000	
2	 H17	-20.570	206.920	111.570	 H	1	UNK0	0.000	
3	 H01	-13.850	206.700	113.130	 H	1	UNK0	0.000	
4	 H18	-19.590	207.510	110.340	 H	1	UNK0	0.000	
5	 H03	-12.040	206.030	112.280	 H	1	UNK0	0.000	
6	 H02	-9.800	206.660	111.500	 H	1	UNK0	0.000	
7	 H06	-4.730	207.620	114.010	 H	1	UNK0	0.000	
8	 H05	-8.870	208.270	115.380	 H	1	UNK0	0.000	
9	 H07	-5.420	206.650	112.700	 H	1	UNK0	0.000	
10	 H04	-11.100	207.630	116.210	 H	1	UNK0	0.000	
11	 H10	-5.980	206.210	115.320	 H	1	UNK0	0.000	
12	 H09	-6.980	208.550	114.510	 H	1	UNK0	0.000	
13	 H08	-5.430	208.400	112.570	 H	1	UNK0	0.000	
14	 H11	-7.650	206.560	115.710	 H	1	UNK0	0.000	
15	 H15	-17.390	207.140	110.180	 H	1	UNK0	0.000	
16	 H14	-19.610	206.010	113.630	 H	1	UNK0	0.000	
17	 H13	-17.560	205.020	114.650	 H	1	UNK0	0.000	
18	 H16	-15.340	206.130	111.090	 H	1	UNK0	0.000	
19	  C1	-13.020	206.280	114.890	C.2	1	UNK0	0.000	
20	  O1	-13.100	205.930	116.050	O.2	1	UNK0	0.000	
21	  N1	-14.100	206.330	114.030	N.pl3	1	UNK0	0.000	
22	  C2	-9.180	207.450	113.400	C.2	1	UNK0	0.000	
23	  C3	-10.100	206.890	112.520	C.2	1	UNK0	0.000	
24	  C4	-11.380	206.550	112.970	C.2	1	UNK0	0.000	
25	  C5	-11.740	206.790	114.310	C.2	1	UNK0	0.000	
26	  C6	-10.830	207.430	115.180	C.2	1	UNK0	0.000	
27	  C7	-9.560	207.780	114.710	C.2	1	UNK0	0.000	
28	  O2	-7.880	207.570	112.910	O.3	1	UNK0	0.000	
29	  C8	-5.540	207.570	113.280	C.3	1	UNK0	0.000	
30	  C9	-6.890	207.620	113.950	C.3	1	UNK0	0.000	
31	 C10	-6.960	206.410	114.870	C.3	1	UNK0	0.000	
32	  S1	-14.780	204.910	113.670	S.o2	1	UNK0	0.000	
33	  O3	-13.940	204.400	112.610	O.2	1	UNK0	0.000	
34	  O4	-15.090	204.140	114.860	O.2	1	UNK0	0.000	
35	 C11	-16.320	205.500	112.940	C.2	1	UNK0	0.000	
36	 C12	-17.520	205.450	113.650	C.2	1	UNK0	0.000	
37	 C13	-18.670	206.010	113.080	C.2	1	UNK0	0.000	
38	 C14	-18.620	206.610	111.820	C.2	1	UNK0	0.000	
39	 C15	-17.410	206.680	111.160	C.2	1	UNK0	0.000	
40	 C16	-16.250	206.100	111.670	C.2	1	UNK0	0.000	
41	  N2	-19.680	207.360	111.350	N.pl3	1	UNK0	0.000	
@<TRIPOS>BOND
1 19 20 2
2 19 21 1
3 19 25 1
4 3 21 1
5 21 32 1
6 22 23 2
7 22 27 1
8 22 28 1
9 6 23 1
10 23 24 1
11 5 24 1
12 24 25 2
13 25 26 1
14 10 26 1
15 26 27 2
16 8 27 1
17 28 30 1
18 7 29 1
19 9 29 1
20 13 29 1
21 29 30 1
22 12 30 1
23 30 31 1
24 1 31 1
25 11 31 1
26 14 31 1
27 32 33 2
28 32 34 2
29 32 35 1
30 35 36 2
31 35 40 1
32 17 36 1
33 36 37 1
34 16 37 1
35 37 38 2
36 38 39 1
37 38 41 1
38 15 39 1
39 39 40 2
40 18 40 1
41 2 41 1
42 4 41 1
@<TRIPOS>SUBSTRUCTURE
1	UNK0	1	GROUP	1 ****	UNK
