# created with PyMOL 2.5.0
@<TRIPOS>MOLECULE
ZINC00002103
41 42 1                 
SMALL
USER_CHARGES
@<TRIPOS>ATOM
1	 H12	-5.930	208.660	115.380	 H	1	UNK0	0.000	
2	 H17	-19.320	207.670	113.200	 H	1	UNK0	0.000	
3	 H01	-11.840	205.370	111.430	 H	1	UNK0	0.000	
4	 H18	-18.510	208.840	112.330	 H	1	UNK0	0.000	
5	 H03	-10.110	206.360	111.070	 H	1	UNK0	0.000	
6	 H02	-7.660	206.430	111.320	 H	1	UNK0	0.000	
7	 H06	-5.050	209.250	111.700	 H	1	UNK0	0.000	
8	 H05	-8.070	207.540	115.450	 H	1	UNK0	0.000	
9	 H07	-5.690	207.670	111.210	 H	1	UNK0	0.000	
10	 H04	-10.530	207.440	115.260	 H	1	UNK0	0.000	
11	 H10	-5.250	209.890	114.280	 H	1	UNK0	0.000	
12	 H09	-4.580	207.730	113.480	 H	1	UNK0	0.000	
13	 H08	-6.790	208.930	111.780	 H	1	UNK0	0.000	
14	 H11	-6.970	209.460	114.200	 H	1	UNK0	0.000	
15	 H15	-16.520	208.480	111.160	 H	1	UNK0	0.000	
16	 H14	-18.370	205.480	113.550	 H	1	UNK0	0.000	
17	 H13	-16.250	204.190	113.640	 H	1	UNK0	0.000	
18	 H16	-14.410	207.180	111.080	 H	1	UNK0	0.000	
19	  C1	-11.980	206.570	113.170	C.2	1	UNK0	0.000	
20	  O1	-12.700	206.900	114.090	O.2	1	UNK0	0.000	
21	  N1	-12.430	205.740	112.150	N.pl3	1	UNK0	0.000	
22	  C2	-7.720	206.980	113.400	C.2	1	UNK0	0.000	
23	  C3	-8.290	206.660	112.170	C.2	1	UNK0	0.000	
24	  C4	-9.690	206.620	112.040	C.2	1	UNK0	0.000	
25	  C5	-10.510	206.860	113.160	C.2	1	UNK0	0.000	
26	  C6	-9.920	207.240	114.380	C.2	1	UNK0	0.000	
27	  C7	-8.520	207.290	114.500	C.2	1	UNK0	0.000	
28	  O2	-6.360	206.770	113.580	O.3	1	UNK0	0.000	
29	  C8	-5.800	208.490	111.920	C.3	1	UNK0	0.000	
30	  C9	-5.630	207.990	113.340	C.3	1	UNK0	0.000	
31	 C10	-5.960	209.060	114.360	C.3	1	UNK0	0.000	
32	  S1	-13.620	204.660	112.430	S.o2	1	UNK0	0.000	
33	  O3	-13.560	203.850	111.230	O.2	1	UNK0	0.000	
34	  O4	-13.410	204.090	113.740	O.2	1	UNK0	0.000	
35	 C11	-15.170	205.610	112.400	C.2	1	UNK0	0.000	
36	 C12	-16.280	205.140	113.120	C.2	1	UNK0	0.000	
37	 C13	-17.470	205.880	113.090	C.2	1	UNK0	0.000	
38	 C14	-17.520	207.120	112.470	C.2	1	UNK0	0.000	
39	 C15	-16.430	207.550	111.710	C.2	1	UNK0	0.000	
40	 C16	-15.250	206.810	111.670	C.2	1	UNK0	0.000	
41	  N2	-18.710	207.840	112.390	N.pl3	1	UNK0	0.000	
@<TRIPOS>BOND
1 19 20 2
2 19 21 1
3 19 25 1
4 3 21 1
5 21 32 1
6 22 23 2
7 22 27 1
8 22 28 1
9 6 23 1
10 23 24 1
11 5 24 1
12 24 25 2
13 25 26 1
14 10 26 1
15 26 27 2
16 8 27 1
17 28 30 1
18 7 29 1
19 9 29 1
20 13 29 1
21 29 30 1
22 12 30 1
23 30 31 1
24 1 31 1
25 11 31 1
26 14 31 1
27 32 33 2
28 32 34 2
29 32 35 1
30 35 36 2
31 35 40 1
32 17 36 1
33 36 37 1
34 16 37 1
35 37 38 2
36 38 39 1
37 38 41 1
38 15 39 1
39 39 40 2
40 18 40 1
41 2 41 1
42 4 41 1
@<TRIPOS>SUBSTRUCTURE
1	UNK0	1	GROUP	1 ****	UNK
