step2_200_2000_5.0_22633.xyz.gro
  PyMOL2.5          3D                             0

 23 24  0  0  0  0  0  0  0  0999 V2000
   -7.7308  206.9769  113.3908 C   0  0  0  0  0  0  0  0  0  0  0  0
   -8.3012  206.6578  112.1607 C   0  0  0  0  0  0  0  0  0  0  0  0
   -9.7012  206.6187  112.0309 C   0  0  0  0  0  0  0  0  0  0  0  0
  -10.5209  206.8588  113.1511 C   0  0  0  0  0  0  0  0  0  0  0  0
   -9.9305  207.2379  114.3712 C   0  0  0  0  0  0  0  0  0  0  0  0
   -8.5304  207.2870  114.4910 C   0  0  0  0  0  0  0  0  0  0  0  0
  -15.1818  205.6121  112.3913 C   0  0  0  0  0  0  0  0  0  0  0  0
  -16.2920  205.1425  113.1113 C   0  0  0  0  0  0  0  0  0  0  0  0
  -17.4815  205.8833  113.0817 C   0  0  0  0  0  0  0  0  0  0  0  0
  -17.5308  207.1236  112.4622 C   0  0  0  0  0  0  0  0  0  0  0  0
  -16.4406  207.5532  111.7023 C   0  0  0  0  0  0  0  0  0  0  0  0
  -15.2611  206.8124  111.6618 C   0  0  0  0  0  0  0  0  0  0  0  0
  -11.9911  206.5697  113.1612 C   0  0  0  0  0  0  0  0  0  0  0  0
  -12.7107  206.8998  114.0815 O   0  0  0  0  0  0  0  0  0  0  0  0
  -12.4417  205.7404  112.1410 N   0  0  0  0  0  0  0  0  0  0  0  0
   -6.3709  206.7660  113.5705 O   0  0  0  0  0  0  0  0  0  0  0  0
   -5.8100  208.4863  111.9111 C   0  0  0  0  0  0  0  0  0  0  0  0
   -5.6401  207.9856  113.3309 C   0  0  0  0  0  0  0  0  0  0  0  0
   -5.9693  209.0554  114.3514 C   0  0  0  0  0  0  0  0  0  0  0  0
  -13.6324  204.6611  112.4207 S   0  0  0  0  0  0  0  0  0  0  0  0
  -13.5731  203.8515  111.2204 O   0  0  0  0  0  0  0  0  0  0  0  0
  -13.4226  204.0904  113.7304 O   0  0  0  0  0  0  0  0  0  0  0  0
  -18.7204  207.8444  112.3827 N   0  0  0  0  0  0  0  0  0  0  0  0
  1  2  1  0  0  0  0
  1  6  1  0  0  0  0
  1 16  1  0  0  0  0
  2  3  1  0  0  0  0
  3  4  1  0  0  0  0
  4  5  1  0  0  0  0
  4 13  1  0  0  0  0
  5  6  1  0  0  0  0
  7  8  1  0  0  0  0
  7 12  1  0  0  0  0
  7 20  1  0  0  0  0
  8  9  1  0  0  0  0
  9 10  1  0  0  0  0
 10 11  1  0  0  0  0
 10 23  1  0  0  0  0
 11 12  1  0  0  0  0
 13 14  1  0  0  0  0
 13 15  1  0  0  0  0
 15 20  1  0  0  0  0
 16 18  1  0  0  0  0
 17 18  1  0  0  0  0
 18 19  1  0  0  0  0
 20 21  1  0  0  0  0
 20 22  1  0  0  0  0
M  END
$$$$
