# created with PyMOL 2.5.0
@<TRIPOS>MOLECULE
ZINC00002103
41 42 1                 
SMALL
USER_CHARGES
@<TRIPOS>ATOM
1	 H12	-4.250	208.270	118.980	 H	1	UNK0	0.000	
2	 H17	-16.910	205.540	114.210	 H	1	UNK0	0.000	
3	 H01	-9.950	208.640	112.070	 H	1	UNK0	0.000	
4	 H18	-17.400	205.390	112.630	 H	1	UNK0	0.000	
5	 H03	-8.040	208.910	112.990	 H	1	UNK0	0.000	
6	 H02	-6.130	209.340	114.490	 H	1	UNK0	0.000	
7	 H06	-4.230	205.210	116.910	 H	1	UNK0	0.000	
8	 H05	-7.760	206.610	117.410	 H	1	UNK0	0.000	
9	 H07	-5.560	205.670	115.830	 H	1	UNK0	0.000	
10	 H04	-9.660	206.160	115.950	 H	1	UNK0	0.000	
11	 H10	-3.530	206.660	118.760	 H	1	UNK0	0.000	
12	 H09	-5.910	206.660	118.120	 H	1	UNK0	0.000	
13	 H08	-4.010	206.500	115.710	 H	1	UNK0	0.000	
14	 H11	-3.200	207.960	117.600	 H	1	UNK0	0.000	
15	 H15	-16.090	205.860	110.800	 H	1	UNK0	0.000	
16	 H14	-14.890	206.740	114.780	 H	1	UNK0	0.000	
17	 H13	-12.650	207.390	114.010	 H	1	UNK0	0.000	
18	 H16	-13.830	206.350	109.950	 H	1	UNK0	0.000	
19	  C1	-10.090	207.010	113.470	C.2	1	UNK0	0.000	
20	  O1	-10.720	206.010	113.750	O.2	1	UNK0	0.000	
21	  N1	-10.460	207.820	112.380	N.pl3	1	UNK0	0.000	
22	  C2	-6.810	207.980	116.020	C.2	1	UNK0	0.000	
23	  C3	-6.910	208.660	114.800	C.2	1	UNK0	0.000	
24	  C4	-8.000	208.410	113.960	C.2	1	UNK0	0.000	
25	  C5	-9.000	207.500	114.360	C.2	1	UNK0	0.000	
26	  C6	-8.910	206.880	115.620	C.2	1	UNK0	0.000	
27	  C7	-7.820	207.130	116.450	C.2	1	UNK0	0.000	
28	  O2	-5.680	208.270	116.780	O.3	1	UNK0	0.000	
29	  C8	-4.720	206.060	116.420	C.3	1	UNK0	0.000	
30	  C9	-5.170	207.070	117.440	C.3	1	UNK0	0.000	
31	 C10	-3.970	207.510	118.250	C.3	1	UNK0	0.000	
32	  S1	-11.400	207.180	111.220	S.o2	1	UNK0	0.000	
33	  O3	-11.520	208.260	110.260	O.2	1	UNK0	0.000	
34	  O4	-10.820	205.920	110.820	O.2	1	UNK0	0.000	
35	 C11	-13.050	206.870	111.910	C.2	1	UNK0	0.000	
36	 C12	-13.360	207.010	113.280	C.2	1	UNK0	0.000	
37	 C13	-14.630	206.640	113.740	C.2	1	UNK0	0.000	
38	 C14	-15.590	206.160	112.850	C.2	1	UNK0	0.000	
39	 C15	-15.310	206.140	111.490	C.2	1	UNK0	0.000	
40	 C16	-14.030	206.430	111.010	C.2	1	UNK0	0.000	
41	  N2	-16.900	206.000	113.270	N.pl3	1	UNK0	0.000	
@<TRIPOS>BOND
1 19 20 2
2 19 21 1
3 19 25 1
4 3 21 1
5 21 32 1
6 22 23 2
7 22 27 1
8 22 28 1
9 6 23 1
10 23 24 1
11 5 24 1
12 24 25 2
13 25 26 1
14 10 26 1
15 26 27 2
16 8 27 1
17 28 30 1
18 7 29 1
19 9 29 1
20 13 29 1
21 29 30 1
22 12 30 1
23 30 31 1
24 1 31 1
25 11 31 1
26 14 31 1
27 32 33 2
28 32 34 2
29 32 35 1
30 35 36 2
31 35 40 1
32 17 36 1
33 36 37 1
34 16 37 1
35 37 38 2
36 38 39 1
37 38 41 1
38 15 39 1
39 39 40 2
40 18 40 1
41 2 41 1
42 4 41 1
@<TRIPOS>SUBSTRUCTURE
1	UNK0	1	GROUP	1 ****	UNK
