# created with PyMOL 2.5.0
@<TRIPOS>MOLECULE
ZINC00002103
41 42 1                 
SMALL
USER_CHARGES
@<TRIPOS>ATOM
1	 H12	-7.870	205.320	121.160	 H	1	UNK0	0.000	
2	 H17	-19.380	207.140	111.310	 H	1	UNK0	0.000	
3	 H01	-12.170	204.760	113.450	 H	1	UNK0	0.000	
4	 H18	-18.380	207.960	110.240	 H	1	UNK0	0.000	
5	 H03	-11.000	204.260	115.360	 H	1	UNK0	0.000	
6	 H02	-9.450	204.960	117.120	 H	1	UNK0	0.000	
7	 H06	-6.910	205.560	118.830	 H	1	UNK0	0.000	
8	 H05	-12.350	207.770	118.610	 H	1	UNK0	0.000	
9	 H07	-7.890	206.320	117.560	 H	1	UNK0	0.000	
10	 H04	-13.930	207.100	116.830	 H	1	UNK0	0.000	
11	 H10	-8.400	207.020	121.130	 H	1	UNK0	0.000	
12	 H09	-9.260	204.830	119.190	 H	1	UNK0	0.000	
13	 H08	-7.390	207.260	118.950	 H	1	UNK0	0.000	
14	 H11	-9.580	205.740	121.460	 H	1	UNK0	0.000	
15	 H15	-15.980	207.590	110.240	 H	1	UNK0	0.000	
16	 H14	-18.660	205.490	112.820	 H	1	UNK0	0.000	
17	 H13	-16.850	204.040	113.590	 H	1	UNK0	0.000	
18	 H16	-14.130	206.110	110.910	 H	1	UNK0	0.000	
19	  C1	-13.600	205.180	114.960	C.2	1	UNK0	0.000	
20	  O1	-14.790	205.330	115.150	O.2	1	UNK0	0.000	
21	  N1	-13.100	204.600	113.810	N.pl3	1	UNK0	0.000	
22	  C2	-10.820	206.390	118.000	C.2	1	UNK0	0.000	
23	  C3	-10.420	205.420	117.060	C.2	1	UNK0	0.000	
24	  C4	-11.300	205.050	116.040	C.2	1	UNK0	0.000	
25	  C5	-12.580	205.640	115.950	C.2	1	UNK0	0.000	
26	  C6	-12.950	206.630	116.880	C.2	1	UNK0	0.000	
27	  C7	-12.060	207.010	117.890	C.2	1	UNK0	0.000	
28	  O2	-10.040	206.780	119.090	O.3	1	UNK0	0.000	
29	  C8	-7.720	206.260	118.640	C.3	1	UNK0	0.000	
30	  C9	-8.970	205.870	119.390	C.3	1	UNK0	0.000	
31	 C10	-8.680	205.990	120.870	C.3	1	UNK0	0.000	
32	  S1	-14.060	203.820	112.750	S.o2	1	UNK0	0.000	
33	  O3	-13.190	203.660	111.610	O.2	1	UNK0	0.000	
34	  O4	-14.620	202.680	113.440	O.2	1	UNK0	0.000	
35	 C11	-15.360	204.990	112.320	C.2	1	UNK0	0.000	
36	 C12	-16.640	204.810	112.860	C.2	1	UNK0	0.000	
37	 C13	-17.670	205.650	112.420	C.2	1	UNK0	0.000	
38	 C14	-17.450	206.610	111.450	C.2	1	UNK0	0.000	
39	 C15	-16.160	206.810	110.960	C.2	1	UNK0	0.000	
40	 C16	-15.110	205.980	111.350	C.2	1	UNK0	0.000	
41	  N2	-18.450	207.540	111.180	N.pl3	1	UNK0	0.000	
@<TRIPOS>BOND
1 19 20 2
2 19 21 1
3 19 25 1
4 3 21 1
5 21 32 1
6 22 23 2
7 22 27 1
8 22 28 1
9 6 23 1
10 23 24 1
11 5 24 1
12 24 25 2
13 25 26 1
14 10 26 1
15 26 27 2
16 8 27 1
17 28 30 1
18 7 29 1
19 9 29 1
20 13 29 1
21 29 30 1
22 12 30 1
23 30 31 1
24 1 31 1
25 11 31 1
26 14 31 1
27 32 33 2
28 32 34 2
29 32 35 1
30 35 36 2
31 35 40 1
32 17 36 1
33 36 37 1
34 16 37 1
35 37 38 2
36 38 39 1
37 38 41 1
38 15 39 1
39 39 40 2
40 18 40 1
41 2 41 1
42 4 41 1
@<TRIPOS>SUBSTRUCTURE
1	UNK0	1	GROUP	1 ****	UNK
