# created with PyMOL 2.5.0
@<TRIPOS>MOLECULE
ZINC00002103
41 42 1                 
SMALL
USER_CHARGES
@<TRIPOS>ATOM
1	 H12	-5.830	209.800	116.780	 H	1	UNK0	0.000	
2	 H17	-17.490	204.840	112.990	 H	1	UNK0	0.000	
3	 H01	-10.170	207.430	111.720	 H	1	UNK0	0.000	
4	 H18	-17.570	204.970	111.320	 H	1	UNK0	0.000	
5	 H03	-9.070	209.010	112.130	 H	1	UNK0	0.000	
6	 H02	-6.820	209.920	112.360	 H	1	UNK0	0.000	
7	 H06	-2.250	209.430	115.860	 H	1	UNK0	0.000	
8	 H05	-6.250	207.690	116.000	 H	1	UNK0	0.000	
9	 H07	-2.530	208.970	114.160	 H	1	UNK0	0.000	
10	 H04	-8.480	206.700	115.770	 H	1	UNK0	0.000	
11	 H10	-4.150	209.950	117.340	 H	1	UNK0	0.000	
12	 H09	-4.340	208.130	115.600	 H	1	UNK0	0.000	
13	 H08	-2.850	210.620	114.690	 H	1	UNK0	0.000	
14	 H11	-4.830	211.110	116.170	 H	1	UNK0	0.000	
15	 H15	-15.800	205.830	109.980	 H	1	UNK0	0.000	
16	 H14	-15.510	205.190	114.200	 H	1	UNK0	0.000	
17	 H13	-13.040	205.350	114.080	 H	1	UNK0	0.000	
18	 H16	-13.340	206.010	109.800	 H	1	UNK0	0.000	
19	  C1	-10.230	207.020	113.750	C.2	1	UNK0	0.000	
20	  O1	-10.720	206.330	114.640	O.2	1	UNK0	0.000	
21	  N1	-10.710	206.990	112.450	N.pl3	1	UNK0	0.000	
22	  C2	-6.390	208.880	114.190	C.2	1	UNK0	0.000	
23	  C3	-7.200	209.240	113.120	C.2	1	UNK0	0.000	
24	  C4	-8.480	208.700	112.980	C.2	1	UNK0	0.000	
25	  C5	-8.950	207.770	113.930	C.2	1	UNK0	0.000	
26	  C6	-8.140	207.430	115.030	C.2	1	UNK0	0.000	
27	  C7	-6.870	207.990	115.170	C.2	1	UNK0	0.000	
28	  O2	-5.110	209.430	114.160	O.3	1	UNK0	0.000	
29	  C8	-2.910	209.570	115.000	C.3	1	UNK0	0.000	
30	  C9	-4.330	209.190	115.330	C.3	1	UNK0	0.000	
31	 C10	-4.810	210.060	116.470	C.3	1	UNK0	0.000	
32	  S1	-11.220	205.600	111.800	S.o2	1	UNK0	0.000	
33	  O3	-10.830	205.800	110.420	O.2	1	UNK0	0.000	
34	  O4	-10.730	204.460	112.540	O.2	1	UNK0	0.000	
35	 C11	-13.020	205.680	111.930	C.2	1	UNK0	0.000	
36	 C12	-13.630	205.460	113.180	C.2	1	UNK0	0.000	
37	 C13	-15.030	205.350	113.240	C.2	1	UNK0	0.000	
38	 C14	-15.790	205.410	112.080	C.2	1	UNK0	0.000	
39	 C15	-15.190	205.720	110.870	C.2	1	UNK0	0.000	
40	 C16	-13.800	205.830	110.770	C.2	1	UNK0	0.000	
41	  N2	-17.190	205.390	112.170	N.pl3	1	UNK0	0.000	
@<TRIPOS>BOND
1 19 20 2
2 19 21 1
3 19 25 1
4 3 21 1
5 21 32 1
6 22 23 2
7 22 27 1
8 22 28 1
9 6 23 1
10 23 24 1
11 5 24 1
12 24 25 2
13 25 26 1
14 10 26 1
15 26 27 2
16 8 27 1
17 28 30 1
18 7 29 1
19 9 29 1
20 13 29 1
21 29 30 1
22 12 30 1
23 30 31 1
24 1 31 1
25 11 31 1
26 14 31 1
27 32 33 2
28 32 34 2
29 32 35 1
30 35 36 2
31 35 40 1
32 17 36 1
33 36 37 1
34 16 37 1
35 37 38 2
36 38 39 1
37 38 41 1
38 15 39 1
39 39 40 2
40 18 40 1
41 2 41 1
42 4 41 1
@<TRIPOS>SUBSTRUCTURE
1	UNK0	1	GROUP	1 ****	UNK
