# created with PyMOL 2.5.0
@<TRIPOS>MOLECULE
ZINC00002103
41 42 1                 
SMALL
USER_CHARGES
@<TRIPOS>ATOM
1	 H12	-4.580	210.920	118.370	 H	1	UNK0	0.000	
2	 H17	-17.640	204.910	114.370	 H	1	UNK0	0.000	
3	 H01	-10.150	205.910	112.780	 H	1	UNK0	0.000	
4	 H18	-17.730	205.190	112.720	 H	1	UNK0	0.000	
5	 H03	-9.290	207.720	113.100	 H	1	UNK0	0.000	
6	 H02	-7.660	209.450	113.720	 H	1	UNK0	0.000	
7	 H06	-4.520	208.490	117.940	 H	1	UNK0	0.000	
8	 H05	-8.210	208.490	117.890	 H	1	UNK0	0.000	
9	 H07	-5.770	207.690	116.990	 H	1	UNK0	0.000	
10	 H04	-9.800	206.720	117.300	 H	1	UNK0	0.000	
11	 H10	-4.560	211.170	116.610	 H	1	UNK0	0.000	
12	 H09	-6.730	209.720	118.170	 H	1	UNK0	0.000	
13	 H08	-4.600	208.710	116.180	 H	1	UNK0	0.000	
14	 H11	-5.820	211.930	117.590	 H	1	UNK0	0.000	
15	 H15	-15.770	205.500	111.370	 H	1	UNK0	0.000	
16	 H14	-15.700	204.570	115.540	 H	1	UNK0	0.000	
17	 H13	-13.280	204.060	115.420	 H	1	UNK0	0.000	
18	 H16	-13.360	205.000	111.180	 H	1	UNK0	0.000	
19	  C1	-10.590	205.930	114.860	C.2	1	UNK0	0.000	
20	  O1	-11.150	205.320	115.760	O.2	1	UNK0	0.000	
21	  N1	-10.650	205.480	113.550	N.pl3	1	UNK0	0.000	
22	  C2	-7.780	209.050	115.830	C.2	1	UNK0	0.000	
23	  C3	-8.130	208.830	114.500	C.2	1	UNK0	0.000	
24	  C4	-9.040	207.850	114.140	C.2	1	UNK0	0.000	
25	  C5	-9.640	207.050	115.160	C.2	1	UNK0	0.000	
26	  C6	-9.320	207.300	116.500	C.2	1	UNK0	0.000	
27	  C7	-8.400	208.280	116.840	C.2	1	UNK0	0.000	
28	  O2	-6.880	210.050	116.110	O.3	1	UNK0	0.000	
29	  C8	-5.190	208.600	117.090	C.3	1	UNK0	0.000	
30	  C9	-6.100	209.830	117.270	C.3	1	UNK0	0.000	
31	 C10	-5.210	211.020	117.490	C.3	1	UNK0	0.000	
32	  S1	-11.400	204.090	113.150	S.o2	1	UNK0	0.000	
33	  O3	-11.070	203.920	111.760	O.2	1	UNK0	0.000	
34	  O4	-11.020	203.070	114.120	O.2	1	UNK0	0.000	
35	 C11	-13.150	204.490	113.290	C.2	1	UNK0	0.000	
36	 C12	-13.810	204.360	114.520	C.2	1	UNK0	0.000	
37	 C13	-15.180	204.650	114.590	C.2	1	UNK0	0.000	
38	 C14	-15.880	204.990	113.450	C.2	1	UNK0	0.000	
39	 C15	-15.230	205.170	112.240	C.2	1	UNK0	0.000	
40	 C16	-13.850	204.890	112.140	C.2	1	UNK0	0.000	
41	  N2	-17.230	205.420	113.570	N.pl3	1	UNK0	0.000	
@<TRIPOS>BOND
1 19 20 2
2 19 21 1
3 19 25 1
4 3 21 1
5 21 32 1
6 22 23 2
7 22 27 1
8 22 28 1
9 6 23 1
10 23 24 1
11 5 24 1
12 24 25 2
13 25 26 1
14 10 26 1
15 26 27 2
16 8 27 1
17 28 30 1
18 7 29 1
19 9 29 1
20 13 29 1
21 29 30 1
22 12 30 1
23 30 31 1
24 1 31 1
25 11 31 1
26 14 31 1
27 32 33 2
28 32 34 2
29 32 35 1
30 35 36 2
31 35 40 1
32 17 36 1
33 36 37 1
34 16 37 1
35 37 38 2
36 38 39 1
37 38 41 1
38 15 39 1
39 39 40 2
40 18 40 1
41 2 41 1
42 4 41 1
@<TRIPOS>SUBSTRUCTURE
1	UNK0	1	GROUP	1 ****	UNK
