# created with PyMOL 2.5.0
@<TRIPOS>MOLECULE
ZINC00002103
41 42 1                 
SMALL
USER_CHARGES
@<TRIPOS>ATOM
1	 H12	-6.870	208.560	117.930	 H	1	UNK0	0.000	
2	 H17	-18.590	207.830	111.150	 H	1	UNK0	0.000	
3	 H01	-12.730	203.790	114.260	 H	1	UNK0	0.000	
4	 H18	-17.240	208.160	110.190	 H	1	UNK0	0.000	
5	 H03	-11.600	204.020	116.300	 H	1	UNK0	0.000	
6	 H02	-9.860	205.520	117.140	 H	1	UNK0	0.000	
7	 H06	-7.380	207.560	115.740	 H	1	UNK0	0.000	
8	 H05	-12.580	208.850	116.990	 H	1	UNK0	0.000	
9	 H07	-9.030	207.080	115.310	 H	1	UNK0	0.000	
10	 H04	-14.370	207.360	116.110	 H	1	UNK0	0.000	
11	 H10	-8.070	209.820	117.610	 H	1	UNK0	0.000	
12	 H09	-8.630	206.860	117.810	 H	1	UNK0	0.000	
13	 H08	-8.630	208.780	115.410	 H	1	UNK0	0.000	
14	 H11	-8.170	208.890	119.090	 H	1	UNK0	0.000	
15	 H15	-15.290	206.810	110.150	 H	1	UNK0	0.000	
16	 H14	-18.660	205.990	112.660	 H	1	UNK0	0.000	
17	 H13	-17.390	204.260	113.850	 H	1	UNK0	0.000	
18	 H16	-13.970	205.080	111.290	 H	1	UNK0	0.000	
19	  C1	-14.160	204.770	115.460	C.2	1	UNK0	0.000	
20	  O1	-15.320	205.130	115.450	O.2	1	UNK0	0.000	
21	  N1	-13.700	203.830	114.550	N.pl3	1	UNK0	0.000	
22	  C2	-11.100	207.300	117.070	C.2	1	UNK0	0.000	
23	  C3	-10.830	205.940	116.890	C.2	1	UNK0	0.000	
24	  C4	-11.820	205.080	116.410	C.2	1	UNK0	0.000	
25	  C5	-13.090	205.600	116.090	C.2	1	UNK0	0.000	
26	  C6	-13.380	206.950	116.340	C.2	1	UNK0	0.000	
27	  C7	-12.380	207.800	116.830	C.2	1	UNK0	0.000	
28	  O2	-10.170	208.250	117.510	O.3	1	UNK0	0.000	
29	  C8	-8.440	207.810	115.860	C.3	1	UNK0	0.000	
30	  C9	-8.810	207.820	117.330	C.3	1	UNK0	0.000	
31	 C10	-7.920	208.830	118.030	C.3	1	UNK0	0.000	
32	  S1	-14.680	203.190	113.430	S.o2	1	UNK0	0.000	
33	  O3	-13.770	202.660	112.440	O.2	1	UNK0	0.000	
34	  O4	-15.640	202.330	114.110	O.2	1	UNK0	0.000	
35	 C11	-15.560	204.600	112.700	C.2	1	UNK0	0.000	
36	 C12	-16.890	204.850	113.080	C.2	1	UNK0	0.000	
37	 C13	-17.610	205.850	112.430	C.2	1	UNK0	0.000	
38	 C14	-17.010	206.620	111.430	C.2	1	UNK0	0.000	
39	 C15	-15.710	206.310	111.010	C.2	1	UNK0	0.000	
40	 C16	-14.970	205.320	111.650	C.2	1	UNK0	0.000	
41	  N2	-17.800	207.440	110.640	N.pl3	1	UNK0	0.000	
@<TRIPOS>BOND
1 19 20 2
2 19 21 1
3 19 25 1
4 3 21 1
5 21 32 1
6 22 23 2
7 22 27 1
8 22 28 1
9 6 23 1
10 23 24 1
11 5 24 1
12 24 25 2
13 25 26 1
14 10 26 1
15 26 27 2
16 8 27 1
17 28 30 1
18 7 29 1
19 9 29 1
20 13 29 1
21 29 30 1
22 12 30 1
23 30 31 1
24 1 31 1
25 11 31 1
26 14 31 1
27 32 33 2
28 32 34 2
29 32 35 1
30 35 36 2
31 35 40 1
32 17 36 1
33 36 37 1
34 16 37 1
35 37 38 2
36 38 39 1
37 38 41 1
38 15 39 1
39 39 40 2
40 18 40 1
41 2 41 1
42 4 41 1
@<TRIPOS>SUBSTRUCTURE
1	UNK0	1	GROUP	1 ****	UNK
