step2_200_2000_5.0_85083.xyz.gro
  PyMOL2.5          3D                             0

 23 24  0  0  0  0  0  0  0  0999 V2000
   -7.2156  206.9573  111.6236 C   0  0  0  0  0  0  0  0  0  0  0  0
   -8.1359  206.2775  110.8237 C   0  0  0  0  0  0  0  0  0  0  0  0
   -9.4858  206.2377  111.1639 C   0  0  0  0  0  0  0  0  0  0  0  0
   -9.9355  206.8777  112.3441 C   0  0  0  0  0  0  0  0  0  0  0  0
   -9.0253  207.6375  113.1040 C   0  0  0  0  0  0  0  0  0  0  0  0
   -7.6653  207.6773  112.7338 C   0  0  0  0  0  0  0  0  0  0  0  0
  -14.7356  206.0684  112.7848 C   0  0  0  0  0  0  0  0  0  0  0  0
  -15.5054  206.5684  113.8549 C   0  0  0  0  0  0  0  0  0  0  0  0
  -16.6153  207.3586  113.5551 C   0  0  0  0  0  0  0  0  0  0  0  0
  -17.0254  207.6488  112.2652 C   0  0  0  0  0  0  0  0  0  0  0  0
  -16.2357  207.1487  111.2350 C   0  0  0  0  0  0  0  0  0  0  0  0
  -15.1158  206.3485  111.4648 C   0  0  0  0  0  0  0  0  0  0  0  0
  -11.3455  206.7279  112.8543 C   0  0  0  0  0  0  0  0  0  0  0  0
  -11.7952  207.4379  113.7344 O   0  0  0  0  0  0  0  0  0  0  0  0
  -12.0757  205.6680  112.3143 N   0  0  0  0  0  0  0  0  0  0  0  0
   -5.8657  206.8071  111.2634 O   0  0  0  0  0  0  0  0  0  0  0  0
   -3.5356  207.0167  111.6631 C   0  0  0  0  0  0  0  0  0  0  0  0
   -4.9155  207.2668  112.2433 C   0  0  0  0  0  0  0  0  0  0  0  0
   -4.9654  206.4668  113.5433 C   0  0  0  0  0  0  0  0  0  0  0  0
  -13.3257  204.9881  113.1145 S   0  0  0  0  0  0  0  0  0  0  0  0
  -13.5060  203.7482  112.3744 O   0  0  0  0  0  0  0  0  0  0  0  0
  -13.0055  204.9680  114.5244 O   0  0  0  0  0  0  0  0  0  0  0  0
  -18.0053  208.6289  112.0654 N   0  0  0  0  0  0  0  0  0  0  0  0
  1  2  1  0  0  0  0
  1  6  1  0  0  0  0
  1 16  1  0  0  0  0
  2  3  1  0  0  0  0
  3  4  1  0  0  0  0
  4  5  1  0  0  0  0
  4 13  1  0  0  0  0
  5  6  1  0  0  0  0
  7  8  1  0  0  0  0
  7 12  1  0  0  0  0
  7 20  1  0  0  0  0
  8  9  1  0  0  0  0
  9 10  1  0  0  0  0
 10 11  1  0  0  0  0
 10 23  1  0  0  0  0
 11 12  1  0  0  0  0
 13 14  1  0  0  0  0
 13 15  1  0  0  0  0
 15 20  1  0  0  0  0
 16 18  1  0  0  0  0
 17 18  1  0  0  0  0
 18 19  1  0  0  0  0
 20 21  1  0  0  0  0
 20 22  1  0  0  0  0
M  END
$$$$
