step2_200_2000_5.0_16930.xyz.gro
  PyMOL2.5          3D                             0

 23 24  0  0  0  0  0  0  0  0999 V2000
   -8.8296  207.2669  115.1145 C   0  0  0  0  0  0  0  0  0  0  0  0
   -9.9096  206.5971  115.6746 C   0  0  0  0  0  0  0  0  0  0  0  0
  -10.9999  206.1975  114.8848 C   0  0  0  0  0  0  0  0  0  0  0  0
  -11.0001  206.4776  113.5148 C   0  0  0  0  0  0  0  0  0  0  0  0
   -9.9200  207.1874  112.9347 C   0  0  0  0  0  0  0  0  0  0  0  0
   -8.8398  207.5771  113.7345 C   0  0  0  0  0  0  0  0  0  0  0  0
  -14.7108  205.8187  110.7955 C   0  0  0  0  0  0  0  0  0  0  0  0
  -15.6207  205.1588  111.6256 C   0  0  0  0  0  0  0  0  0  0  0  0
  -16.9106  205.6891  111.7759 C   0  0  0  0  0  0  0  0  0  0  0  0
  -17.2505  206.8793  111.1361 C   0  0  0  0  0  0  0  0  0  0  0  0
  -16.3705  207.4892  110.2560 C   0  0  0  0  0  0  0  0  0  0  0  0
  -15.0806  206.9789  110.0857 C   0  0  0  0  0  0  0  0  0  0  0  0
  -12.1604  205.9379  112.7250 C   0  0  0  0  0  0  0  0  0  0  0  0
  -13.1204  205.4381  113.2851 O   0  0  0  0  0  0  0  0  0  0  0  0
  -12.0406  205.8981  111.3350 N   0  0  0  0  0  0  0  0  0  0  0  0
   -7.8194  207.5866  116.0043 O   0  0  0  0  0  0  0  0  0  0  0  0
   -5.7590  208.6661  116.4641 C   0  0  0  0  0  0  0  0  0  0  0  0
   -6.6094  208.0464  115.3841 C   0  0  0  0  0  0  0  0  0  0  0  0
   -5.8498  206.8863  114.7739 C   0  0  0  0  0  0  0  0  0  0  0  0
  -13.1210  205.0584  110.4451 S   0  0  0  0  0  0  0  0  0  0  0  0
  -12.8012  205.3585  109.0751 O   0  0  0  0  0  0  0  0  0  0  0  0
  -13.1112  203.6783  110.8950 O   0  0  0  0  0  0  0  0  0  0  0  0
  -18.5603  207.3195  111.2164 N   0  0  0  0  0  0  0  0  0  0  0  0
  1  2  1  0  0  0  0
  1  6  1  0  0  0  0
  1 16  1  0  0  0  0
  2  3  1  0  0  0  0
  3  4  1  0  0  0  0
  4  5  1  0  0  0  0
  4 13  1  0  0  0  0
  5  6  1  0  0  0  0
  7  8  1  0  0  0  0
  7 12  1  0  0  0  0
  7 20  1  0  0  0  0
  8  9  1  0  0  0  0
  9 10  1  0  0  0  0
 10 11  1  0  0  0  0
 10 23  1  0  0  0  0
 11 12  1  0  0  0  0
 13 14  1  0  0  0  0
 13 15  1  0  0  0  0
 15 20  1  0  0  0  0
 16 18  1  0  0  0  0
 17 18  1  0  0  0  0
 18 19  1  0  0  0  0
 20 21  1  0  0  0  0
 20 22  1  0  0  0  0
M  END
$$$$
