# created with PyMOL 2.5.0
@<TRIPOS>MOLECULE
ZINC00002103
41 42 1                 
SMALL
USER_CHARGES
@<TRIPOS>ATOM
1	 H12	-5.980	210.060	117.540	 H	1	UNK0	0.000	
2	 H17	-19.350	205.930	111.810	 H	1	UNK0	0.000	
3	 H01	-12.050	204.930	114.120	 H	1	UNK0	0.000	
4	 H18	-18.320	206.400	110.590	 H	1	UNK0	0.000	
5	 H03	-10.640	206.210	113.190	 H	1	UNK0	0.000	
6	 H02	-8.250	206.810	113.260	 H	1	UNK0	0.000	
7	 H06	-4.500	208.030	117.400	 H	1	UNK0	0.000	
8	 H05	-8.820	208.710	117.080	 H	1	UNK0	0.000	
9	 H07	-4.980	206.670	116.350	 H	1	UNK0	0.000	
10	 H04	-11.200	208.110	117.060	 H	1	UNK0	0.000	
11	 H10	-5.750	210.200	115.790	 H	1	UNK0	0.000	
12	 H09	-6.960	207.800	117.270	 H	1	UNK0	0.000	
13	 H08	-4.430	208.170	115.630	 H	1	UNK0	0.000	
14	 H11	-7.380	210.200	116.450	 H	1	UNK0	0.000	
15	 H15	-16.010	205.670	110.550	 H	1	UNK0	0.000	
16	 H14	-18.750	204.750	113.680	 H	1	UNK0	0.000	
17	 H13	-16.880	204.350	115.250	 H	1	UNK0	0.000	
18	 H16	-14.090	205.200	112.020	 H	1	UNK0	0.000	
19	  C1	-12.510	206.600	115.250	C.2	1	UNK0	0.000	
20	  O1	-13.300	207.080	116.050	O.2	1	UNK0	0.000	
21	  N1	-12.820	205.490	114.470	N.pl3	1	UNK0	0.000	
22	  C2	-8.370	207.720	115.200	C.2	1	UNK0	0.000	
23	  C3	-8.900	207.070	114.090	C.2	1	UNK0	0.000	
24	  C4	-10.260	206.730	114.060	C.2	1	UNK0	0.000	
25	  C5	-11.090	207.060	115.160	C.2	1	UNK0	0.000	
26	  C6	-10.560	207.800	116.230	C.2	1	UNK0	0.000	
27	  C7	-9.200	208.130	116.250	C.2	1	UNK0	0.000	
28	  O2	-6.990	207.910	115.160	O.3	1	UNK0	0.000	
29	  C8	-5.000	207.760	116.460	C.3	1	UNK0	0.000	
30	  C9	-6.420	208.270	116.440	C.3	1	UNK0	0.000	
31	 C10	-6.390	209.770	116.570	C.3	1	UNK0	0.000	
32	  S1	-13.980	204.420	114.870	S.o2	1	UNK0	0.000	
33	  O3	-13.440	203.160	114.400	O.2	1	UNK0	0.000	
34	  O4	-14.400	204.570	116.240	O.2	1	UNK0	0.000	
35	 C11	-15.350	204.820	113.770	C.2	1	UNK0	0.000	
36	 C12	-16.670	204.670	114.240	C.2	1	UNK0	0.000	
37	 C13	-17.720	204.910	113.360	C.2	1	UNK0	0.000	
38	 C14	-17.480	205.400	112.080	C.2	1	UNK0	0.000	
39	 C15	-16.180	205.410	111.590	C.2	1	UNK0	0.000	
40	 C16	-15.100	205.150	112.430	C.2	1	UNK0	0.000	
41	  N2	-18.550	205.650	111.240	N.pl3	1	UNK0	0.000	
@<TRIPOS>BOND
1 19 20 2
2 19 21 1
3 19 25 1
4 3 21 1
5 21 32 1
6 22 23 2
7 22 27 1
8 22 28 1
9 6 23 1
10 23 24 1
11 5 24 1
12 24 25 2
13 25 26 1
14 10 26 1
15 26 27 2
16 8 27 1
17 28 30 1
18 7 29 1
19 9 29 1
20 13 29 1
21 29 30 1
22 12 30 1
23 30 31 1
24 1 31 1
25 11 31 1
26 14 31 1
27 32 33 2
28 32 34 2
29 32 35 1
30 35 36 2
31 35 40 1
32 17 36 1
33 36 37 1
34 16 37 1
35 37 38 2
36 38 39 1
37 38 41 1
38 15 39 1
39 39 40 2
40 18 40 1
41 2 41 1
42 4 41 1
@<TRIPOS>SUBSTRUCTURE
1	UNK0	1	GROUP	1 ****	UNK
