@<TRIPOS>MOLECULE
ZINC00002103
 23 24 0 0 0
SMALL
USER_CHARGES

@<TRIPOS>ATOM
      1 C1        -13.8300  206.5000  114.3100 C.2     1  UNK01       0.0000
      2 O1        -14.2700  207.4000  113.6200 O.2     1  UNK01       0.0000
      3 N1        -14.6600  205.4600  114.7100 N.am    1  UNK01       0.0000
      4 C2         -9.6700  206.5000  115.3900 C.2     1  UNK01       0.0000
      5 C3        -10.1700  207.3900  114.4300 C.2     1  UNK01       0.0000
      6 C4        -11.5200  207.3500  114.0800 C.2     1  UNK01       0.0000
      7 C5        -12.3800  206.4100  114.6800 C.2     1  UNK01       0.0000
      8 C6        -11.8700  205.5100  115.6300 C.2     1  UNK01       0.0000
      9 C7        -10.5200  205.5500  115.9800 C.2     1  UNK01       0.0000
     10 O2         -8.3500  206.4600  115.8500 O.2     1  UNK01       0.0000
     11 C8         -7.1000  207.0300  113.8000 C.3     1  UNK01       0.0000
     12 C9         -7.4200  207.3800  115.2400 C.3     1  UNK01       0.0000
     13 C10        -7.7900  208.8400  115.4300 C.3     1  UNK01       0.0000
     14 S1        -15.2700  204.6100  113.4500 S.O2    1  UNK01       0.0000
     15 O3        -14.2200  204.3600  112.5000 O.2     1  UNK01       0.0000
     16 O4        -16.0100  203.5000  114.0200 O.2     1  UNK01       0.0000
     17 C11       -16.5000  205.7200  112.6800 C.2     1  UNK01       0.0000
     18 C12       -17.8400  205.6900  113.0900 C.2     1  UNK01       0.0000
     19 C13       -18.7700  206.5300  112.4800 C.2     1  UNK01       0.0000
     20 C14       -18.4000  207.3300  111.4000 C.2     1  UNK01       0.0000
     21 C15       -17.0700  207.3600  111.0100 C.2     1  UNK01       0.0000
     22 C16       -16.1100  206.5500  111.6100 C.2     1  UNK01       0.0000
     23 N2        -19.3000  208.2500  110.9000 N.pl3   1  UNK01       0.0000
@<TRIPOS>BOND
     1     1     2    2
     2     1     3   am
     3     1     7    1
     4     3    14    1
     5     4     5    2
     6     4     9    1
     7     4    10    1
     8     5     6    1
     9     6     7    2
    10     7     8    1
    11     8     9    2
    12    10    12    1
    13    11    12    1
    14    12    13    1
    15    14    15    2
    16    14    16    2
    17    14    17    1
    18    17    18    2
    19    17    22    1
    20    18    19    1
    21    19    20    2
    22    20    21    1
    23    20    23    1
    24    21    22    2
