# created with PyMOL 2.5.0
@<TRIPOS>MOLECULE
ZINC00002103
41 42 1                 
SMALL
USER_CHARGES
@<TRIPOS>ATOM
1	 H12	-9.680	209.420	117.300	 H	1	UNK0	0.000	
2	 H17	-21.850	206.830	112.540	 H	1	UNK0	0.000	
3	 H01	-14.590	204.390	112.890	 H	1	UNK0	0.000	
4	 H18	-20.800	207.910	111.870	 H	1	UNK0	0.000	
5	 H03	-13.700	206.550	112.880	 H	1	UNK0	0.000	
6	 H02	-11.390	207.430	112.870	 H	1	UNK0	0.000	
7	 H06	-7.390	208.810	116.610	 H	1	UNK0	0.000	
8	 H05	-10.750	205.910	116.830	 H	1	UNK0	0.000	
9	 H07	-7.130	207.560	115.360	 H	1	UNK0	0.000	
10	 H04	-13.070	205.020	116.880	 H	1	UNK0	0.000	
11	 H10	-10.110	209.740	115.620	 H	1	UNK0	0.000	
12	 H09	-9.120	207.050	116.720	 H	1	UNK0	0.000	
13	 H08	-7.820	209.120	114.910	 H	1	UNK0	0.000	
14	 H11	-11.100	208.660	116.590	 H	1	UNK0	0.000	
15	 H15	-18.620	207.500	111.590	 H	1	UNK0	0.000	
16	 H14	-21.070	205.190	114.240	 H	1	UNK0	0.000	
17	 H13	-19.230	203.610	114.610	 H	1	UNK0	0.000	
18	 H16	-16.740	205.930	111.900	 H	1	UNK0	0.000	
19	  C1	-14.880	205.050	114.890	C.2	1	UNK0	0.000	
20	  O1	-15.530	204.920	115.900	O.2	1	UNK0	0.000	
21	  N1	-15.200	204.420	113.690	N.pl3	1	UNK0	0.000	
22	  C2	-10.940	206.730	114.840	C.2	1	UNK0	0.000	
23	  C3	-11.760	206.900	113.730	C.2	1	UNK0	0.000	
24	  C4	-13.070	206.390	113.740	C.2	1	UNK0	0.000	
25	  C5	-13.530	205.690	114.870	C.2	1	UNK0	0.000	
26	  C6	-12.710	205.550	116.000	C.2	1	UNK0	0.000	
27	  C7	-11.400	206.060	115.980	C.2	1	UNK0	0.000	
28	  O2	-9.660	207.260	114.710	O.3	1	UNK0	0.000	
29	  C8	-7.800	208.360	115.700	C.3	1	UNK0	0.000	
30	  C9	-9.190	207.820	115.950	C.3	1	UNK0	0.000	
31	 C10	-10.070	208.970	116.390	C.3	1	UNK0	0.000	
32	  S1	-16.510	203.470	113.510	S.o2	1	UNK0	0.000	
33	  O3	-16.270	202.810	112.240	O.2	1	UNK0	0.000	
34	  O4	-16.710	202.680	114.710	O.2	1	UNK0	0.000	
35	 C11	-17.850	204.660	113.290	C.2	1	UNK0	0.000	
36	 C12	-19.070	204.460	113.960	C.2	1	UNK0	0.000	
37	 C13	-20.120	205.350	113.730	C.2	1	UNK0	0.000	
38	 C14	-19.960	206.420	112.860	C.2	1	UNK0	0.000	
39	 C15	-18.730	206.660	112.260	C.2	1	UNK0	0.000	
40	 C16	-17.670	205.770	112.440	C.2	1	UNK0	0.000	
41	  N2	-20.990	207.350	112.690	N.pl3	1	UNK0	0.000	
@<TRIPOS>BOND
1 19 20 2
2 19 21 1
3 19 25 1
4 3 21 1
5 21 32 1
6 22 23 2
7 22 27 1
8 22 28 1
9 6 23 1
10 23 24 1
11 5 24 1
12 24 25 2
13 25 26 1
14 10 26 1
15 26 27 2
16 8 27 1
17 28 30 1
18 7 29 1
19 9 29 1
20 13 29 1
21 29 30 1
22 12 30 1
23 30 31 1
24 1 31 1
25 11 31 1
26 14 31 1
27 32 33 2
28 32 34 2
29 32 35 1
30 35 36 2
31 35 40 1
32 17 36 1
33 36 37 1
34 16 37 1
35 37 38 2
36 38 39 1
37 38 41 1
38 15 39 1
39 39 40 2
40 18 40 1
41 2 41 1
42 4 41 1
@<TRIPOS>SUBSTRUCTURE
1	UNK0	1	GROUP	1 ****	UNK
