# created with PyMOL 2.5.0
@<TRIPOS>MOLECULE
ZINC00002103
41 42 1                 
SMALL
USER_CHARGES
@<TRIPOS>ATOM
1	 H12	-7.820	209.180	114.180	 H	1	UNK0	0.000	
2	 H17	-21.620	203.950	110.820	 H	1	UNK0	0.000	
3	 H01	-17.280	204.720	113.180	 H	1	UNK0	0.000	
4	 H18	-21.180	205.180	111.770	 H	1	UNK0	0.000	
5	 H03	-14.550	206.470	111.450	 H	1	UNK0	0.000	
6	 H02	-12.280	207.340	111.050	 H	1	UNK0	0.000	
7	 H06	-8.140	206.880	115.110	 H	1	UNK0	0.000	
8	 H05	-11.350	206.870	115.230	 H	1	UNK0	0.000	
9	 H07	-9.530	205.890	114.620	 H	1	UNK0	0.000	
10	 H04	-13.610	205.980	115.640	 H	1	UNK0	0.000	
11	 H10	-7.940	208.510	112.540	 H	1	UNK0	0.000	
12	 H09	-10.100	208.390	114.680	 H	1	UNK0	0.000	
13	 H08	-8.250	206.250	113.460	 H	1	UNK0	0.000	
14	 H11	-8.990	209.840	113.020	 H	1	UNK0	0.000	
15	 H15	-19.230	203.880	109.290	 H	1	UNK0	0.000	
16	 H14	-21.530	207.510	110.090	 H	1	UNK0	0.000	
17	 H13	-19.780	208.170	111.690	 H	1	UNK0	0.000	
18	 H16	-17.610	204.540	110.660	 H	1	UNK0	0.000	
19	  C1	-15.560	205.480	113.880	C.2	1	UNK0	0.000	
20	  O1	-15.700	204.830	114.900	O.2	1	UNK0	0.000	
21	  N1	-16.550	205.410	112.890	N.pl3	1	UNK0	0.000	
22	  C2	-11.670	207.160	113.100	C.2	1	UNK0	0.000	
23	  C3	-12.580	207.050	112.050	C.2	1	UNK0	0.000	
24	  C4	-13.860	206.560	112.290	C.2	1	UNK0	0.000	
25	  C5	-14.250	206.150	113.570	C.2	1	UNK0	0.000	
26	  C6	-13.330	206.280	114.640	C.2	1	UNK0	0.000	
27	  C7	-12.050	206.790	114.400	C.2	1	UNK0	0.000	
28	  O2	-10.400	207.630	112.740	O.3	1	UNK0	0.000	
29	  C8	-8.810	206.670	114.300	C.3	1	UNK0	0.000	
30	  C9	-9.550	207.930	113.850	C.3	1	UNK0	0.000	
31	 C10	-8.510	208.930	113.380	C.3	1	UNK0	0.000	
32	  S1	-17.420	206.780	112.690	S.o2	1	UNK0	0.000	
33	  O3	-18.200	206.930	113.880	O.2	1	UNK0	0.000	
34	  O4	-16.510	207.810	112.220	O.2	1	UNK0	0.000	
35	 C11	-18.560	206.400	111.340	C.2	1	UNK0	0.000	
36	 C12	-19.650	207.270	111.110	C.2	1	UNK0	0.000	
37	 C13	-20.650	206.880	110.200	C.2	1	UNK0	0.000	
38	 C14	-20.740	205.510	109.910	C.2	1	UNK0	0.000	
39	 C15	-19.480	204.840	109.770	C.2	1	UNK0	0.000	
40	 C16	-18.440	205.240	110.580	C.2	1	UNK0	0.000	
41	  N2	-21.620	204.970	110.870	N.pl3	1	UNK0	0.000	
@<TRIPOS>BOND
1 19 20 2
2 19 21 1
3 19 25 1
4 3 21 1
5 21 32 1
6 22 23 2
7 22 27 1
8 22 28 1
9 6 23 1
10 23 24 1
11 5 24 1
12 24 25 2
13 25 26 1
14 10 26 1
15 26 27 2
16 8 27 1
17 28 30 1
18 7 29 1
19 9 29 1
20 13 29 1
21 29 30 1
22 12 30 1
23 30 31 1
24 1 31 1
25 11 31 1
26 14 31 1
27 32 33 2
28 32 34 2
29 32 35 1
30 35 36 2
31 35 40 1
32 17 36 1
33 36 37 1
34 16 37 1
35 37 38 2
36 38 39 1
37 38 41 1
38 15 39 1
39 39 40 2
40 18 40 1
41 2 41 1
42 4 41 1
@<TRIPOS>SUBSTRUCTURE
1	UNK0	1	GROUP	1 ****	UNK
