step2_200_2000_5.0_85412.xyz.gro
  PyMOL2.5          3D                             0

 23 24  0  0  0  0  0  0  0  0999 V2000
   -9.1345  208.0199  114.2177 C   0  0  0  0  0  0  0  0  0  0  0  0
   -9.8748  208.1999  113.0579 C   0  0  0  0  0  0  0  0  0  0  0  0
  -11.1349  207.6098  112.9182 C   0  0  0  0  0  0  0  0  0  0  0  0
  -11.6746  206.8398  113.9784 C   0  0  0  0  0  0  0  0  0  0  0  0
  -10.9243  206.6799  115.1582 C   0  0  0  0  0  0  0  0  0  0  0  0
   -9.6542  207.2499  115.2779 C   0  0  0  0  0  0  0  0  0  0  0  0
  -16.0750  205.2697  112.0896 C   0  0  0  0  0  0  0  0  0  0  0  0
  -17.0348  204.5897  112.8498 C   0  0  0  0  0  0  0  0  0  0  0  0
  -18.3849  204.8196  112.5902 C   0  0  0  0  0  0  0  0  0  0  0  0
  -18.7751  205.7796  111.6702 C   0  0  0  0  0  0  0  0  0  0  0  0
  -17.8153  206.4296  110.9000 C   0  0  0  0  0  0  0  0  0  0  0  0
  -16.4553  206.1796  111.0996 C   0  0  0  0  0  0  0  0  0  0  0  0
  -13.0046  206.1698  113.8887 C   0  0  0  0  0  0  0  0  0  0  0  0
  -13.5843  205.7398  114.8789 O   0  0  0  0  0  0  0  0  0  0  0  0
  -13.5149  206.0198  112.6089 N   0  0  0  0  0  0  0  0  0  0  0  0
   -7.8845  208.6300  114.2174 O   0  0  0  0  0  0  0  0  0  0  0  0
   -5.7243  208.8700  115.1368 C   0  0  0  0  0  0  0  0  0  0  0  0
   -7.1442  208.4900  115.4372 C   0  0  0  0  0  0  0  0  0  0  0  0
   -7.6840  209.4400  116.4973 C   0  0  0  0  0  0  0  0  0  0  0  0
  -14.3650  204.6997  112.1891 S   0  0  0  0  0  0  0  0  0  0  0  0
  -13.8753  204.4897  110.8490 O   0  0  0  0  0  0  0  0  0  0  0  0
  -14.2747  203.6597  113.1791 O   0  0  0  0  0  0  0  0  0  0  0  0
  -20.1152  205.8695  111.3006 N   0  0  0  0  0  0  0  0  0  0  0  0
  1  2  1  0  0  0  0
  1  6  1  0  0  0  0
  1 16  1  0  0  0  0
  2  3  1  0  0  0  0
  3  4  1  0  0  0  0
  4  5  1  0  0  0  0
  4 13  1  0  0  0  0
  5  6  1  0  0  0  0
  7  8  1  0  0  0  0
  7 12  1  0  0  0  0
  7 20  1  0  0  0  0
  8  9  1  0  0  0  0
  9 10  1  0  0  0  0
 10 11  1  0  0  0  0
 10 23  1  0  0  0  0
 11 12  1  0  0  0  0
 13 14  1  0  0  0  0
 13 15  1  0  0  0  0
 15 20  1  0  0  0  0
 16 18  1  0  0  0  0
 17 18  1  0  0  0  0
 18 19  1  0  0  0  0
 20 21  1  0  0  0  0
 20 22  1  0  0  0  0
M  END
$$$$
