@<TRIPOS>MOLECULE
ZINC00002103
 23 24 0 0 0
SMALL
USER_CHARGES

@<TRIPOS>ATOM
      1 C1        -10.5900  205.9300  114.8600 C.2     1  UNK01       0.0000
      2 O1        -11.1500  205.3200  115.7600 O.2     1  UNK01       0.0000
      3 N1        -10.6500  205.4800  113.5500 N.am    1  UNK01       0.0000
      4 C2         -7.7800  209.0500  115.8300 C.2     1  UNK01       0.0000
      5 C3         -8.1300  208.8300  114.5000 C.2     1  UNK01       0.0000
      6 C4         -9.0400  207.8500  114.1400 C.2     1  UNK01       0.0000
      7 C5         -9.6400  207.0500  115.1600 C.2     1  UNK01       0.0000
      8 C6         -9.3200  207.3000  116.5000 C.2     1  UNK01       0.0000
      9 C7         -8.4000  208.2800  116.8400 C.2     1  UNK01       0.0000
     10 O2         -6.8800  210.0500  116.1100 O.2     1  UNK01       0.0000
     11 C8         -5.1900  208.6000  117.0900 C.3     1  UNK01       0.0000
     12 C9         -6.1000  209.8300  117.2700 C.3     1  UNK01       0.0000
     13 C10        -5.2100  211.0200  117.4900 C.3     1  UNK01       0.0000
     14 S1        -11.4000  204.0900  113.1500 S.O2    1  UNK01       0.0000
     15 O3        -11.0700  203.9200  111.7600 O.2     1  UNK01       0.0000
     16 O4        -11.0200  203.0700  114.1200 O.2     1  UNK01       0.0000
     17 C11       -13.1500  204.4900  113.2900 C.2     1  UNK01       0.0000
     18 C12       -13.8100  204.3600  114.5200 C.2     1  UNK01       0.0000
     19 C13       -15.1800  204.6500  114.5900 C.2     1  UNK01       0.0000
     20 C14       -15.8800  204.9900  113.4500 C.2     1  UNK01       0.0000
     21 C15       -15.2300  205.1700  112.2400 C.2     1  UNK01       0.0000
     22 C16       -13.8500  204.8900  112.1400 C.2     1  UNK01       0.0000
     23 N2        -17.2300  205.4200  113.5700 N.pl3   1  UNK01       0.0000
@<TRIPOS>BOND
     1     1     2    2
     2     1     3   am
     3     1     7    1
     4     3    14    1
     5     4     5    2
     6     4     9    1
     7     4    10    1
     8     5     6    1
     9     6     7    2
    10     7     8    1
    11     8     9    2
    12    10    12    1
    13    11    12    1
    14    12    13    1
    15    14    15    2
    16    14    16    2
    17    14    17    1
    18    17    18    2
    19    17    22    1
    20    18    19    1
    21    19    20    2
    22    20    21    1
    23    20    23    1
    24    21    22    2
