step2_200_2000_5.0_21878.xyz.gro
  PyMOL2.5          3D                             0

 23 24  0  0  0  0  0  0  0  0999 V2000
   -9.2141  207.4286  113.3807 C   0  0  0  0  0  0  0  0  0  0  0  0
  -10.1354  206.8698  112.5012 C   0  0  0  0  0  0  0  0  0  0  0  0
  -11.4154  206.5311  112.9521 C   0  0  0  0  0  0  0  0  0  0  0  0
  -11.7742  206.7711  114.2924 C   0  0  0  0  0  0  0  0  0  0  0  0
  -10.8628  207.4099  115.1619 C   0  0  0  0  0  0  0  0  0  0  0  0
   -9.5928  207.7586  114.6911 C   0  0  0  0  0  0  0  0  0  0  0  0
  -16.3566  205.4864  112.9255 C   0  0  0  0  0  0  0  0  0  0  0  0
  -17.5561  205.4375  113.6363 C   0  0  0  0  0  0  0  0  0  0  0  0
  -18.7059  205.9989  113.0673 C   0  0  0  0  0  0  0  0  0  0  0  0
  -18.6562  206.5992  111.8075 C   0  0  0  0  0  0  0  0  0  0  0  0
  -17.4466  206.6681  111.1466 C   0  0  0  0  0  0  0  0  0  0  0  0
  -16.2869  206.0867  111.6556 C   0  0  0  0  0  0  0  0  0  0  0  0
  -13.0543  206.2623  114.8732 C   0  0  0  0  0  0  0  0  0  0  0  0
  -13.1338  205.9121  116.0332 O   0  0  0  0  0  0  0  0  0  0  0  0
  -14.1349  206.3137  114.0140 N   0  0  0  0  0  0  0  0  0  0  0  0
   -7.9144  207.5473  112.8898 O   0  0  0  0  0  0  0  0  0  0  0  0
   -5.5741  207.5447  113.2580 C   0  0  0  0  0  0  0  0  0  0  0  0
   -6.9235  207.5960  113.9291 C   0  0  0  0  0  0  0  0  0  0  0  0
   -6.9942  206.3858  114.8488 C   0  0  0  0  0  0  0  0  0  0  0  0
  -14.8167  204.8946  113.6541 S   0  0  0  0  0  0  0  0  0  0  0  0
  -13.9780  204.3840  112.5934 O   0  0  0  0  0  0  0  0  0  0  0  0
  -15.1266  204.1246  114.8442 O   0  0  0  0  0  0  0  0  0  0  0  0
  -19.7157  207.3505  111.3385 N   0  0  0  0  0  0  0  0  0  0  0  0
  1  2  1  0  0  0  0
  1  6  1  0  0  0  0
  1 16  1  0  0  0  0
  2  3  1  0  0  0  0
  3  4  1  0  0  0  0
  4  5  1  0  0  0  0
  4 13  1  0  0  0  0
  5  6  1  0  0  0  0
  7  8  1  0  0  0  0
  7 12  1  0  0  0  0
  7 20  1  0  0  0  0
  8  9  1  0  0  0  0
  9 10  1  0  0  0  0
 10 11  1  0  0  0  0
 10 23  1  0  0  0  0
 11 12  1  0  0  0  0
 13 14  1  0  0  0  0
 13 15  1  0  0  0  0
 15 20  1  0  0  0  0
 16 18  1  0  0  0  0
 17 18  1  0  0  0  0
 18 19  1  0  0  0  0
 20 21  1  0  0  0  0
 20 22  1  0  0  0  0
M  END
$$$$
