@<TRIPOS>MOLECULE
ZINC00002103
 23 24 0 0 0
SMALL
USER_CHARGES

@<TRIPOS>ATOM
      1 C1        -12.9300  205.6200  113.8700 C.2     1  UNK01       0.0000
      2 O1        -13.5100  205.9300  114.8900 O.2     1  UNK01       0.0000
      3 N1        -13.4700  204.7300  112.9600 N.am    1  UNK01       0.0000
      4 C2         -9.1300  207.3200  112.8900 C.2     1  UNK01       0.0000
      5 C3        -10.1300  207.2900  111.9200 C.2     1  UNK01       0.0000
      6 C4        -11.3600  206.6900  112.2100 C.2     1  UNK01       0.0000
      7 C5        -11.5900  206.1600  113.4900 C.2     1  UNK01       0.0000
      8 C6        -10.5900  206.2100  114.4800 C.2     1  UNK01       0.0000
      9 C7         -9.3500  206.7900  114.1700 C.2     1  UNK01       0.0000
     10 O2         -7.9700  208.0200  112.5800 O.2     1  UNK01       0.0000
     11 C8         -5.9800  206.9800  111.7800 C.3     1  UNK01       0.0000
     12 C9         -6.7800  207.3300  113.0100 C.3     1  UNK01       0.0000
     13 C10        -5.9600  208.2300  113.9100 C.3     1  UNK01       0.0000
     14 S1        -14.9100  204.0100  113.1900 S.O2    1  UNK01       0.0000
     15 O3        -14.9700  203.0300  112.1300 O.2     1  UNK01       0.0000
     16 O4        -15.1000  203.5600  114.5500 O.2     1  UNK01       0.0000
     17 C11       -16.1600  205.2900  112.8300 C.2     1  UNK01       0.0000
     18 C12       -17.3200  205.3600  113.6300 C.2     1  UNK01       0.0000
     19 C13       -18.4600  206.0000  113.1200 C.2     1  UNK01       0.0000
     20 C14       -18.4100  206.6800  111.9200 C.2     1  UNK01       0.0000
     21 C15       -17.1900  206.8000  111.2900 C.2     1  UNK01       0.0000
     22 C16       -16.0600  206.0600  111.6700 C.2     1  UNK01       0.0000
     23 N2        -19.4400  207.5100  111.5100 N.pl3   1  UNK01       0.0000
@<TRIPOS>BOND
     1     1     2    2
     2     1     3   am
     3     1     7    1
     4     3    14    1
     5     4     5    2
     6     4     9    1
     7     4    10    1
     8     5     6    1
     9     6     7    2
    10     7     8    1
    11     8     9    2
    12    10    12    1
    13    11    12    1
    14    12    13    1
    15    14    15    2
    16    14    16    2
    17    14    17    1
    18    17    18    2
    19    17    22    1
    20    18    19    1
    21    19    20    2
    22    20    21    1
    23    20    23    1
    24    21    22    2
