step2_200_2000_5.0_6798.xyz.gro
  PyMOL2.5          3D                             0

 23 24  0  0  0  0  0  0  0  0999 V2000
   -9.3833  207.1672  115.4989 C   0  0  0  0  0  0  0  0  0  0  0  0
  -10.5927  207.8683  115.5288 C   0  0  0  0  0  0  0  0  0  0  0  0
  -11.8033  207.1995  115.6789 C   0  0  0  0  0  0  0  0  0  0  0  0
  -11.8146  205.7895  115.7892 C   0  0  0  0  0  0  0  0  0  0  0  0
  -10.5953  205.0884  115.7793 C   0  0  0  0  0  0  0  0  0  0  0  0
   -9.3946  205.7673  115.6292 C   0  0  0  0  0  0  0  0  0  0  0  0
  -16.4249  205.4535  113.7592 C   0  0  0  0  0  0  0  0  0  0  0  0
  -17.3346  205.8545  114.7591 C   0  0  0  0  0  0  0  0  0  0  0  0
  -18.4839  206.5455  114.3590 C   0  0  0  0  0  0  0  0  0  0  0  0
  -18.7637  206.7855  113.0190 C   0  0  0  0  0  0  0  0  0  0  0  0
  -17.8240  206.4245  112.0590 C   0  0  0  0  0  0  0  0  0  0  0  0
  -16.6546  205.7534  112.4091 C   0  0  0  0  0  0  0  0  0  0  0  0
  -13.0754  204.9907  115.8593 C   0  0  0  0  0  0  0  0  0  0  0  0
  -13.0464  203.8307  116.2195 O   0  0  0  0  0  0  0  0  0  0  0  0
  -14.1449  205.5216  115.1292 N   0  0  0  0  0  0  0  0  0  0  0  0
   -8.2326  207.9161  115.2688 O   0  0  0  0  0  0  0  0  0  0  0  0
   -5.8924  208.2040  115.4188 C   0  0  0  0  0  0  0  0  0  0  0  0
   -7.0432  207.3151  115.8089 C   0  0  0  0  0  0  0  0  0  0  0  0
   -7.1033  207.2554  117.3289 C   0  0  0  0  0  0  0  0  0  0  0  0
  -15.0159  204.4522  114.2594 S   0  0  0  0  0  0  0  0  0  0  0  0
  -14.2061  204.2013  113.0794 O   0  0  0  0  0  0  0  0  0  0  0  0
  -15.5469  203.3829  115.0596 O   0  0  0  0  0  0  0  0  0  0  0  0
  -19.8229  207.6164  112.6788 N   0  0  0  0  0  0  0  0  0  0  0  0
  1  2  1  0  0  0  0
  1  6  1  0  0  0  0
  1 16  1  0  0  0  0
  2  3  1  0  0  0  0
  3  4  1  0  0  0  0
  4  5  1  0  0  0  0
  4 13  1  0  0  0  0
  5  6  1  0  0  0  0
  7  8  1  0  0  0  0
  7 12  1  0  0  0  0
  7 20  1  0  0  0  0
  8  9  1  0  0  0  0
  9 10  1  0  0  0  0
 10 11  1  0  0  0  0
 10 23  1  0  0  0  0
 11 12  1  0  0  0  0
 13 14  1  0  0  0  0
 13 15  1  0  0  0  0
 15 20  1  0  0  0  0
 16 18  1  0  0  0  0
 17 18  1  0  0  0  0
 18 19  1  0  0  0  0
 20 21  1  0  0  0  0
 20 22  1  0  0  0  0
M  END
$$$$
