step2_200_2000_5.0_2177.xyz.gro
  PyMOL2.5          3D                             0

 23 24  0  0  0  0  0  0  0  0999 V2000
  -11.1176  207.3015  117.0521 C   0  0  0  0  0  0  0  0  0  0  0  0
  -10.8484  205.9415  116.8713 C   0  0  0  0  0  0  0  0  0  0  0  0
  -11.8391  205.0822  116.3914 C   0  0  0  0  0  0  0  0  0  0  0  0
  -13.1090  205.6031  116.0723 C   0  0  0  0  0  0  0  0  0  0  0  0
  -13.3981  206.9531  116.3230 C   0  0  0  0  0  0  0  0  0  0  0  0
  -12.3974  207.8024  116.8130 C   0  0  0  0  0  0  0  0  0  0  0  0
  -15.5812  204.6061  112.6830 C   0  0  0  0  0  0  0  0  0  0  0  0
  -16.9109  204.8566  113.0638 C   0  0  0  0  0  0  0  0  0  0  0  0
  -17.6307  205.8573  112.4146 C   0  0  0  0  0  0  0  0  0  0  0  0
  -17.0308  206.6275  111.4147 C   0  0  0  0  0  0  0  0  0  0  0  0
  -15.7311  206.3170  110.9939 C   0  0  0  0  0  0  0  0  0  0  0  0
  -14.9914  205.3262  111.6331 C   0  0  0  0  0  0  0  0  0  0  0  0
  -14.1798  204.7740  115.4424 C   0  0  0  0  0  0  0  0  0  0  0  0
  -15.3396  205.1346  115.4331 O   0  0  0  0  0  0  0  0  0  0  0  0
  -13.7207  203.8342  114.5317 N   0  0  0  0  0  0  0  0  0  0  0  0
  -10.1868  208.2508  117.4921 O   0  0  0  0  0  0  0  0  0  0  0  0
   -8.4579  207.8107  115.8410 C   0  0  0  0  0  0  0  0  0  0  0  0
   -8.8272  207.8202  117.3112 C   0  0  0  0  0  0  0  0  0  0  0  0
   -7.9363  208.8293  118.0112 C   0  0  0  0  0  0  0  0  0  0  0  0
  -14.7017  203.1953  113.4119 S   0  0  0  0  0  0  0  0  0  0  0  0
  -13.7924  202.6652  112.4212 O   0  0  0  0  0  0  0  0  0  0  0  0
  -15.6618  202.3355  114.0920 O   0  0  0  0  0  0  0  0  0  0  0  0
  -17.8207  207.4483  110.6255 N   0  0  0  0  0  0  0  0  0  0  0  0
  1  2  1  0  0  0  0
  1  6  1  0  0  0  0
  1 16  1  0  0  0  0
  2  3  1  0  0  0  0
  3  4  1  0  0  0  0
  4  5  1  0  0  0  0
  4 13  1  0  0  0  0
  5  6  1  0  0  0  0
  7  8  1  0  0  0  0
  7 12  1  0  0  0  0
  7 20  1  0  0  0  0
  8  9  1  0  0  0  0
  9 10  1  0  0  0  0
 10 11  1  0  0  0  0
 10 23  1  0  0  0  0
 11 12  1  0  0  0  0
 13 14  1  0  0  0  0
 13 15  1  0  0  0  0
 15 20  1  0  0  0  0
 16 18  1  0  0  0  0
 17 18  1  0  0  0  0
 18 19  1  0  0  0  0
 20 21  1  0  0  0  0
 20 22  1  0  0  0  0
M  END
$$$$
