# created with PyMOL 2.5.0
@<TRIPOS>MOLECULE
ZINC00002103
41 42 1                 
SMALL
USER_CHARGES
@<TRIPOS>ATOM
1	 H12	-4.870	207.230	114.390	 H	1	UNK0	0.000	
2	 H17	-18.930	207.050	112.130	 H	1	UNK0	0.000	
3	 H01	-11.350	206.400	110.790	 H	1	UNK0	0.000	
4	 H18	-18.550	208.350	111.200	 H	1	UNK0	0.000	
5	 H03	-11.810	205.660	115.360	 H	1	UNK0	0.000	
6	 H02	-9.890	206.370	116.740	 H	1	UNK0	0.000	
7	 H06	-4.810	209.040	116.050	 H	1	UNK0	0.000	
8	 H05	-8.010	208.110	113.280	 H	1	UNK0	0.000	
9	 H07	-6.280	209.500	116.940	 H	1	UNK0	0.000	
10	 H04	-9.890	207.440	111.890	 H	1	UNK0	0.000	
11	 H10	-5.660	206.110	115.520	 H	1	UNK0	0.000	
12	 H09	-6.810	208.820	114.650	 H	1	UNK0	0.000	
13	 H08	-5.520	207.940	117.250	 H	1	UNK0	0.000	
14	 H11	-6.390	206.430	113.960	 H	1	UNK0	0.000	
15	 H15	-16.670	208.370	109.710	 H	1	UNK0	0.000	
16	 H14	-17.640	205.170	112.380	 H	1	UNK0	0.000	
17	 H13	-15.360	204.230	112.130	 H	1	UNK0	0.000	
18	 H16	-14.390	207.460	109.390	 H	1	UNK0	0.000	
19	  C1	-12.150	205.940	112.730	C.2	1	UNK0	0.000	
20	  O1	-13.110	205.440	113.290	O.2	1	UNK0	0.000	
21	  N1	-12.030	205.900	111.340	N.pl3	1	UNK0	0.000	
22	  C2	-8.820	207.270	115.120	C.2	1	UNK0	0.000	
23	  C3	-9.900	206.600	115.680	C.2	1	UNK0	0.000	
24	  C4	-10.990	206.200	114.890	C.2	1	UNK0	0.000	
25	  C5	-10.990	206.480	113.520	C.2	1	UNK0	0.000	
26	  C6	-9.910	207.190	112.940	C.2	1	UNK0	0.000	
27	  C7	-8.830	207.580	113.740	C.2	1	UNK0	0.000	
28	  O2	-7.810	207.590	116.010	O.3	1	UNK0	0.000	
29	  C8	-5.750	208.670	116.470	C.3	1	UNK0	0.000	
30	  C9	-6.600	208.050	115.390	C.3	1	UNK0	0.000	
31	 C10	-5.840	206.890	114.780	C.3	1	UNK0	0.000	
32	  S1	-13.110	205.060	110.450	S.o2	1	UNK0	0.000	
33	  O3	-12.790	205.360	109.080	O.2	1	UNK0	0.000	
34	  O4	-13.100	203.680	110.900	O.2	1	UNK0	0.000	
35	 C11	-14.700	205.820	110.800	C.2	1	UNK0	0.000	
36	 C12	-15.610	205.160	111.630	C.2	1	UNK0	0.000	
37	 C13	-16.900	205.690	111.780	C.2	1	UNK0	0.000	
38	 C14	-17.240	206.880	111.140	C.2	1	UNK0	0.000	
39	 C15	-16.360	207.490	110.260	C.2	1	UNK0	0.000	
40	 C16	-15.070	206.980	110.090	C.2	1	UNK0	0.000	
41	  N2	-18.550	207.320	111.220	N.pl3	1	UNK0	0.000	
@<TRIPOS>BOND
1 19 20 2
2 19 21 1
3 19 25 1
4 3 21 1
5 21 32 1
6 22 23 2
7 22 27 1
8 22 28 1
9 6 23 1
10 23 24 1
11 5 24 1
12 24 25 2
13 25 26 1
14 10 26 1
15 26 27 2
16 8 27 1
17 28 30 1
18 7 29 1
19 9 29 1
20 13 29 1
21 29 30 1
22 12 30 1
23 30 31 1
24 1 31 1
25 11 31 1
26 14 31 1
27 32 33 2
28 32 34 2
29 32 35 1
30 35 36 2
31 35 40 1
32 17 36 1
33 36 37 1
34 16 37 1
35 37 38 2
36 38 39 1
37 38 41 1
38 15 39 1
39 39 40 2
40 18 40 1
41 2 41 1
42 4 41 1
@<TRIPOS>SUBSTRUCTURE
1	UNK0	1	GROUP	1 ****	UNK
