# created with PyMOL 2.5.0
@<TRIPOS>MOLECULE
ZINC00002103
41 42 1                 
SMALL
USER_CHARGES
@<TRIPOS>ATOM
1	 H12	-6.370	207.340	116.210	 H	1	UNK0	0.000	
2	 H17	-18.970	206.330	111.590	 H	1	UNK0	0.000	
3	 H01	-11.310	204.890	113.760	 H	1	UNK0	0.000	
4	 H18	-18.040	207.430	110.740	 H	1	UNK0	0.000	
5	 H03	-9.800	206.280	113.930	 H	1	UNK0	0.000	
6	 H02	-7.950	207.610	114.780	 H	1	UNK0	0.000	
7	 H06	-5.380	210.920	115.810	 H	1	UNK0	0.000	
8	 H05	-10.500	209.250	117.860	 H	1	UNK0	0.000	
9	 H07	-6.950	211.590	116.300	 H	1	UNK0	0.000	
10	 H04	-12.370	207.900	117.030	 H	1	UNK0	0.000	
11	 H10	-5.050	208.420	115.740	 H	1	UNK0	0.000	
12	 H09	-7.210	209.470	115.030	 H	1	UNK0	0.000	
13	 H08	-5.940	210.770	117.480	 H	1	UNK0	0.000	
14	 H11	-5.610	208.350	117.420	 H	1	UNK0	0.000	
15	 H15	-15.680	207.540	110.930	 H	1	UNK0	0.000	
16	 H14	-18.110	204.990	113.370	 H	1	UNK0	0.000	
17	 H13	-16.130	203.930	114.330	 H	1	UNK0	0.000	
18	 H16	-13.650	206.370	111.730	 H	1	UNK0	0.000	
19	  C1	-12.420	206.190	115.020	C.2	1	UNK0	0.000	
20	  O1	-13.530	206.370	115.480	O.2	1	UNK0	0.000	
21	  N1	-12.230	205.290	113.940	N.pl3	1	UNK0	0.000	
22	  C2	-9.090	208.510	116.410	C.2	1	UNK0	0.000	
23	  C3	-8.900	207.670	115.290	C.2	1	UNK0	0.000	
24	  C4	-9.970	206.900	114.820	C.2	1	UNK0	0.000	
25	  C5	-11.230	206.960	115.450	C.2	1	UNK0	0.000	
26	  C6	-11.400	207.810	116.560	C.2	1	UNK0	0.000	
27	  C7	-10.330	208.570	117.030	C.2	1	UNK0	0.000	
28	  O2	-8.060	209.300	116.950	O.3	1	UNK0	0.000	
29	  C8	-6.250	210.750	116.430	C.3	1	UNK0	0.000	
30	  C9	-6.930	209.440	116.100	C.3	1	UNK0	0.000	
31	 C10	-5.920	208.320	116.370	C.3	1	UNK0	0.000	
32	  S1	-13.320	204.150	113.630	S.o2	1	UNK0	0.000	
33	  O3	-12.780	203.430	112.500	O.2	1	UNK0	0.000	
34	  O4	-13.630	203.460	114.880	O.2	1	UNK0	0.000	
35	 C11	-14.760	205.040	113.050	C.2	1	UNK0	0.000	
36	 C12	-16.010	204.700	113.550	C.2	1	UNK0	0.000	
37	 C13	-17.150	205.300	113.020	C.2	1	UNK0	0.000	
38	 C14	-17.040	206.280	112.020	C.2	1	UNK0	0.000	
39	 C15	-15.780	206.710	111.630	C.2	1	UNK0	0.000	
40	 C16	-14.620	206.080	112.090	C.2	1	UNK0	0.000	
41	  N2	-18.180	206.960	111.650	N.pl3	1	UNK0	0.000	
@<TRIPOS>BOND
1 19 20 2
2 19 21 1
3 19 25 1
4 3 21 1
5 21 32 1
6 22 23 2
7 22 27 1
8 22 28 1
9 6 23 1
10 23 24 1
11 5 24 1
12 24 25 2
13 25 26 1
14 10 26 1
15 26 27 2
16 8 27 1
17 28 30 1
18 7 29 1
19 9 29 1
20 13 29 1
21 29 30 1
22 12 30 1
23 30 31 1
24 1 31 1
25 11 31 1
26 14 31 1
27 32 33 2
28 32 34 2
29 32 35 1
30 35 36 2
31 35 40 1
32 17 36 1
33 36 37 1
34 16 37 1
35 37 38 2
36 38 39 1
37 38 41 1
38 15 39 1
39 39 40 2
40 18 40 1
41 2 41 1
42 4 41 1
@<TRIPOS>SUBSTRUCTURE
1	UNK0	1	GROUP	1 ****	UNK
