step2_200_2000_5.0_40251.xyz.gro
  PyMOL2.5          3D                             0

 23 24  0  0  0  0  0  0  0  0999 V2000
  -11.6799  207.1580  113.0854 C   0  0  0  0  0  0  0  0  0  0  0  0
  -12.5902  207.0486  112.0355 C   0  0  0  0  0  0  0  0  0  0  0  0
  -13.8703  206.5590  112.2757 C   0  0  0  0  0  0  0  0  0  0  0  0
  -14.2601  206.1487  113.5557 C   0  0  0  0  0  0  0  0  0  0  0  0
  -13.3399  206.2782  114.6255 C   0  0  0  0  0  0  0  0  0  0  0  0
  -12.0597  206.7878  114.3854 C   0  0  0  0  0  0  0  0  0  0  0  0
  -18.5706  206.4008  111.3267 C   0  0  0  0  0  0  0  0  0  0  0  0
  -19.6603  207.2712  111.0972 C   0  0  0  0  0  0  0  0  0  0  0  0
  -20.6606  206.8818  110.1873 C   0  0  0  0  0  0  0  0  0  0  0  0
  -20.7512  205.5119  109.8969 C   0  0  0  0  0  0  0  0  0  0  0  0
  -19.4914  204.8415  109.7565 C   0  0  0  0  0  0  0  0  0  0  0  0
  -18.4511  205.2410  110.5663 C   0  0  0  0  0  0  0  0  0  0  0  0
  -15.5703  205.4791  113.8658 C   0  0  0  0  0  0  0  0  0  0  0  0
  -15.7103  204.8289  114.8856 O   0  0  0  0  0  0  0  0  0  0  0  0
  -16.5605  205.4097  112.8760 N   0  0  0  0  0  0  0  0  0  0  0  0
  -10.4098  207.6277  112.7252 O   0  0  0  0  0  0  0  0  0  0  0  0
   -8.8198  206.6667  114.2846 C   0  0  0  0  0  0  0  0  0  0  0  0
   -9.5595  207.9271  113.8351 C   0  0  0  0  0  0  0  0  0  0  0  0
   -8.5193  208.9269  113.3652 C   0  0  0  0  0  0  0  0  0  0  0  0
  -17.4301  206.7800  112.6765 S   0  0  0  0  0  0  0  0  0  0  0  0
  -18.2098  206.9300  113.8668 O   0  0  0  0  0  0  0  0  0  0  0  0
  -16.5199  207.8099  112.2066 O   0  0  0  0  0  0  0  0  0  0  0  0
  -21.6311  204.9719  110.8570 N   0  0  0  0  0  0  0  0  0  0  0  0
  1  2  1  0  0  0  0
  1  6  1  0  0  0  0
  1 16  1  0  0  0  0
  2  3  1  0  0  0  0
  3  4  1  0  0  0  0
  4  5  1  0  0  0  0
  4 13  1  0  0  0  0
  5  6  1  0  0  0  0
  7  8  1  0  0  0  0
  7 12  1  0  0  0  0
  7 20  1  0  0  0  0
  8  9  1  0  0  0  0
  9 10  1  0  0  0  0
 10 11  1  0  0  0  0
 10 23  1  0  0  0  0
 11 12  1  0  0  0  0
 13 14  1  0  0  0  0
 13 15  1  0  0  0  0
 15 20  1  0  0  0  0
 16 18  1  0  0  0  0
 17 18  1  0  0  0  0
 18 19  1  0  0  0  0
 20 21  1  0  0  0  0
 20 22  1  0  0  0  0
M  END
$$$$
