@<TRIPOS>MOLECULE
ZINC00002103
 23 24 0 0 0
SMALL
USER_CHARGES

@<TRIPOS>ATOM
      1 C1        -12.0800  205.3800  114.2800 C.2     1  UNK01       0.0000
      2 O1        -12.8100  205.0700  115.1900 O.2     1  UNK01       0.0000
      3 N1        -12.0700  204.6900  113.0700 N.am    1  UNK01       0.0000
      4 C2         -9.1900  208.5000  114.7600 C.2     1  UNK01       0.0000
      5 C3         -9.5400  208.1300  113.4600 C.2     1  UNK01       0.0000
      6 C4        -10.4900  207.1100  113.2700 C.2     1  UNK01       0.0000
      7 C5        -11.0800  206.4900  114.3900 C.2     1  UNK01       0.0000
      8 C6        -10.7400  206.9000  115.6900 C.2     1  UNK01       0.0000
      9 C7         -9.7900  207.9200  115.8700 C.2     1  UNK01       0.0000
     10 O2         -8.2400  209.4900  114.9200 O.2     1  UNK01       0.0000
     11 C8         -6.3600  208.5300  113.7100 C.3     1  UNK01       0.0000
     12 C9         -6.9600  208.8400  115.0700 C.3     1  UNK01       0.0000
     13 C10        -6.0700  209.8000  115.7900 C.3     1  UNK01       0.0000
     14 S1        -13.0800  203.4500  112.8000 S.O2    1  UNK01       0.0000
     15 O3        -12.9500  203.2200  111.3800 O.2     1  UNK01       0.0000
     16 O4        -12.8200  202.4100  113.7700 O.2     1  UNK01       0.0000
     17 C11       -14.7200  204.1600  113.0800 C.2     1  UNK01       0.0000
     18 C12       -15.4700  203.7400  114.1900 C.2     1  UNK01       0.0000
     19 C13       -16.8200  204.1000  114.2700 C.2     1  UNK01       0.0000
     20 C14       -17.4200  204.8200  113.2400 C.2     1  UNK01       0.0000
     21 C15       -16.6300  205.3600  112.2300 C.2     1  UNK01       0.0000
     22 C16       -15.2900  205.0000  112.1100 C.2     1  UNK01       0.0000
     23 N2        -18.7700  205.1200  113.3000 N.pl3   1  UNK01       0.0000
@<TRIPOS>BOND
     1     1     2    2
     2     1     3   am
     3     1     7    1
     4     3    14    1
     5     4     5    2
     6     4     9    1
     7     4    10    1
     8     5     6    1
     9     6     7    2
    10     7     8    1
    11     8     9    2
    12    10    12    1
    13    11    12    1
    14    12    13    1
    15    14    15    2
    16    14    16    2
    17    14    17    1
    18    17    18    2
    19    17    22    1
    20    18    19    1
    21    19    20    2
    22    20    21    1
    23    20    23    1
    24    21    22    2
