# created with PyMOL 2.5.0
@<TRIPOS>MOLECULE
ZINC00002103
41 42 1                 
SMALL
USER_CHARGES
@<TRIPOS>ATOM
1	 H12	-5.070	209.360	115.940	 H	1	UNK0	0.000	
2	 H17	-19.120	205.280	112.360	 H	1	UNK0	0.000	
3	 H01	-11.540	204.950	112.260	 H	1	UNK0	0.000	
4	 H18	-19.280	204.300	113.690	 H	1	UNK0	0.000	
5	 H03	-10.750	206.840	112.250	 H	1	UNK0	0.000	
6	 H02	-9.080	208.620	112.620	 H	1	UNK0	0.000	
7	 H06	-5.330	208.190	113.820	 H	1	UNK0	0.000	
8	 H05	-9.510	208.250	116.860	 H	1	UNK0	0.000	
9	 H07	-6.920	207.750	113.200	 H	1	UNK0	0.000	
10	 H04	-11.200	206.450	116.560	 H	1	UNK0	0.000	
11	 H10	-5.950	210.740	115.230	 H	1	UNK0	0.000	
12	 H09	-7.040	207.930	115.670	 H	1	UNK0	0.000	
13	 H08	-6.380	209.420	113.070	 H	1	UNK0	0.000	
14	 H11	-6.480	210.070	116.760	 H	1	UNK0	0.000	
15	 H15	-17.100	205.960	111.470	 H	1	UNK0	0.000	
16	 H14	-17.410	203.780	115.110	 H	1	UNK0	0.000	
17	 H13	-15.020	203.130	114.970	 H	1	UNK0	0.000	
18	 H16	-14.720	205.320	111.240	 H	1	UNK0	0.000	
19	  C1	-12.080	205.380	114.280	C.2	1	UNK0	0.000	
20	  O1	-12.810	205.070	115.190	O.2	1	UNK0	0.000	
21	  N1	-12.070	204.690	113.070	N.pl3	1	UNK0	0.000	
22	  C2	-9.190	208.500	114.760	C.2	1	UNK0	0.000	
23	  C3	-9.540	208.130	113.460	C.2	1	UNK0	0.000	
24	  C4	-10.490	207.110	113.270	C.2	1	UNK0	0.000	
25	  C5	-11.080	206.490	114.390	C.2	1	UNK0	0.000	
26	  C6	-10.740	206.900	115.690	C.2	1	UNK0	0.000	
27	  C7	-9.790	207.920	115.870	C.2	1	UNK0	0.000	
28	  O2	-8.240	209.490	114.920	O.3	1	UNK0	0.000	
29	  C8	-6.360	208.530	113.710	C.3	1	UNK0	0.000	
30	  C9	-6.960	208.840	115.070	C.3	1	UNK0	0.000	
31	 C10	-6.070	209.800	115.790	C.3	1	UNK0	0.000	
32	  S1	-13.080	203.450	112.800	S.o2	1	UNK0	0.000	
33	  O3	-12.950	203.220	111.380	O.2	1	UNK0	0.000	
34	  O4	-12.820	202.410	113.770	O.2	1	UNK0	0.000	
35	 C11	-14.720	204.160	113.080	C.2	1	UNK0	0.000	
36	 C12	-15.470	203.740	114.190	C.2	1	UNK0	0.000	
37	 C13	-16.820	204.100	114.270	C.2	1	UNK0	0.000	
38	 C14	-17.420	204.820	113.240	C.2	1	UNK0	0.000	
39	 C15	-16.630	205.360	112.230	C.2	1	UNK0	0.000	
40	 C16	-15.290	205.000	112.110	C.2	1	UNK0	0.000	
41	  N2	-18.770	205.120	113.300	N.pl3	1	UNK0	0.000	
@<TRIPOS>BOND
1 19 20 2
2 19 21 1
3 19 25 1
4 3 21 1
5 21 32 1
6 22 23 2
7 22 27 1
8 22 28 1
9 6 23 1
10 23 24 1
11 5 24 1
12 24 25 2
13 25 26 1
14 10 26 1
15 26 27 2
16 8 27 1
17 28 30 1
18 7 29 1
19 9 29 1
20 13 29 1
21 29 30 1
22 12 30 1
23 30 31 1
24 1 31 1
25 11 31 1
26 14 31 1
27 32 33 2
28 32 34 2
29 32 35 1
30 35 36 2
31 35 40 1
32 17 36 1
33 36 37 1
34 16 37 1
35 37 38 2
36 38 39 1
37 38 41 1
38 15 39 1
39 39 40 2
40 18 40 1
41 2 41 1
42 4 41 1
@<TRIPOS>SUBSTRUCTURE
1	UNK0	1	GROUP	1 ****	UNK
