# created with PyMOL 2.5.0
@<TRIPOS>MOLECULE
ZINC00002103
41 42 1                 
SMALL
USER_CHARGES
@<TRIPOS>ATOM
1	 H12	-4.900	205.400	113.330	 H	1	UNK0	0.000	
2	 H17	-18.600	208.660	112.890	 H	1	UNK0	0.000	
3	 H01	-11.660	204.980	111.710	 H	1	UNK0	0.000	
4	 H18	-17.550	209.570	112.070	 H	1	UNK0	0.000	
5	 H03	-10.160	205.710	110.530	 H	1	UNK0	0.000	
6	 H02	-7.790	205.760	109.940	 H	1	UNK0	0.000	
7	 H06	-3.370	205.950	111.520	 H	1	UNK0	0.000	
8	 H05	-6.970	208.280	113.330	 H	1	UNK0	0.000	
9	 H07	-3.440	207.500	110.690	 H	1	UNK0	0.000	
10	 H04	-9.350	208.170	113.990	 H	1	UNK0	0.000	
11	 H10	-4.120	206.740	114.190	 H	1	UNK0	0.000	
12	 H09	-4.980	208.360	112.380	 H	1	UNK0	0.000	
13	 H08	-2.750	207.410	112.330	 H	1	UNK0	0.000	
14	 H11	-5.880	206.630	114.110	 H	1	UNK0	0.000	
15	 H15	-16.550	207.320	110.230	 H	1	UNK0	0.000	
16	 H14	-17.220	207.740	114.340	 H	1	UNK0	0.000	
17	 H13	-15.260	206.320	114.890	 H	1	UNK0	0.000	
18	 H16	-14.560	205.930	110.630	 H	1	UNK0	0.000	
19	  C1	-11.340	206.730	112.860	C.2	1	UNK0	0.000	
20	  O1	-11.790	207.440	113.740	O.2	1	UNK0	0.000	
21	  N1	-12.070	205.670	112.320	N.pl3	1	UNK0	0.000	
22	  C2	-7.210	206.960	111.630	C.2	1	UNK0	0.000	
23	  C3	-8.130	206.280	110.830	C.2	1	UNK0	0.000	
24	  C4	-9.480	206.240	111.170	C.2	1	UNK0	0.000	
25	  C5	-9.930	206.880	112.350	C.2	1	UNK0	0.000	
26	  C6	-9.020	207.640	113.110	C.2	1	UNK0	0.000	
27	  C7	-7.660	207.680	112.740	C.2	1	UNK0	0.000	
28	  O2	-5.860	206.810	111.270	O.3	1	UNK0	0.000	
29	  C8	-3.530	207.020	111.670	C.3	1	UNK0	0.000	
30	  C9	-4.910	207.270	112.250	C.3	1	UNK0	0.000	
31	 C10	-4.960	206.470	113.550	C.3	1	UNK0	0.000	
32	  S1	-13.320	204.990	113.120	S.o2	1	UNK0	0.000	
33	  O3	-13.500	203.750	112.380	O.2	1	UNK0	0.000	
34	  O4	-13.000	204.970	114.530	O.2	1	UNK0	0.000	
35	 C11	-14.730	206.070	112.790	C.2	1	UNK0	0.000	
36	 C12	-15.500	206.570	113.860	C.2	1	UNK0	0.000	
37	 C13	-16.610	207.360	113.560	C.2	1	UNK0	0.000	
38	 C14	-17.020	207.650	112.270	C.2	1	UNK0	0.000	
39	 C15	-16.230	207.150	111.240	C.2	1	UNK0	0.000	
40	 C16	-15.110	206.350	111.470	C.2	1	UNK0	0.000	
41	  N2	-18.000	208.630	112.070	N.pl3	1	UNK0	0.000	
@<TRIPOS>BOND
1 19 20 2
2 19 21 1
3 19 25 1
4 3 21 1
5 21 32 1
6 22 23 2
7 22 27 1
8 22 28 1
9 6 23 1
10 23 24 1
11 5 24 1
12 24 25 2
13 25 26 1
14 10 26 1
15 26 27 2
16 8 27 1
17 28 30 1
18 7 29 1
19 9 29 1
20 13 29 1
21 29 30 1
22 12 30 1
23 30 31 1
24 1 31 1
25 11 31 1
26 14 31 1
27 32 33 2
28 32 34 2
29 32 35 1
30 35 36 2
31 35 40 1
32 17 36 1
33 36 37 1
34 16 37 1
35 37 38 2
36 38 39 1
37 38 41 1
38 15 39 1
39 39 40 2
40 18 40 1
41 2 41 1
42 4 41 1
@<TRIPOS>SUBSTRUCTURE
1	UNK0	1	GROUP	1 ****	UNK
