@<TRIPOS>MOLECULE
ZINC00002103
 23 24 0 0 0
SMALL
USER_CHARGES

@<TRIPOS>ATOM
      1 C1        -14.1600  204.7700  115.4600 C.2     1  UNK01       0.0000
      2 O1        -15.3200  205.1300  115.4500 O.2     1  UNK01       0.0000
      3 N1        -13.7000  203.8300  114.5500 N.am    1  UNK01       0.0000
      4 C2        -11.1000  207.3000  117.0700 C.2     1  UNK01       0.0000
      5 C3        -10.8300  205.9400  116.8900 C.2     1  UNK01       0.0000
      6 C4        -11.8200  205.0800  116.4100 C.2     1  UNK01       0.0000
      7 C5        -13.0900  205.6000  116.0900 C.2     1  UNK01       0.0000
      8 C6        -13.3800  206.9500  116.3400 C.2     1  UNK01       0.0000
      9 C7        -12.3800  207.8000  116.8300 C.2     1  UNK01       0.0000
     10 O2        -10.1700  208.2500  117.5100 O.2     1  UNK01       0.0000
     11 C8         -8.4400  207.8100  115.8600 C.3     1  UNK01       0.0000
     12 C9         -8.8100  207.8200  117.3300 C.3     1  UNK01       0.0000
     13 C10        -7.9200  208.8300  118.0300 C.3     1  UNK01       0.0000
     14 S1        -14.6800  203.1900  113.4300 S.O2    1  UNK01       0.0000
     15 O3        -13.7700  202.6600  112.4400 O.2     1  UNK01       0.0000
     16 O4        -15.6400  202.3300  114.1100 O.2     1  UNK01       0.0000
     17 C11       -15.5600  204.6000  112.7000 C.2     1  UNK01       0.0000
     18 C12       -16.8900  204.8500  113.0800 C.2     1  UNK01       0.0000
     19 C13       -17.6100  205.8500  112.4300 C.2     1  UNK01       0.0000
     20 C14       -17.0100  206.6200  111.4300 C.2     1  UNK01       0.0000
     21 C15       -15.7100  206.3100  111.0100 C.2     1  UNK01       0.0000
     22 C16       -14.9700  205.3200  111.6500 C.2     1  UNK01       0.0000
     23 N2        -17.8000  207.4400  110.6400 N.pl3   1  UNK01       0.0000
@<TRIPOS>BOND
     1     1     2    2
     2     1     3   am
     3     1     7    1
     4     3    14    1
     5     4     5    2
     6     4     9    1
     7     4    10    1
     8     5     6    1
     9     6     7    2
    10     7     8    1
    11     8     9    2
    12    10    12    1
    13    11    12    1
    14    12    13    1
    15    14    15    2
    16    14    16    2
    17    14    17    1
    18    17    18    2
    19    17    22    1
    20    18    19    1
    21    19    20    2
    22    20    21    1
    23    20    23    1
    24    21    22    2
