step2_200_2000_5.0_28005.xyz.gro
  PyMOL2.5          3D                             0

 23 24  0  0  0  0  0  0  0  0999 V2000
   -8.3768  207.7127  115.1895 C   0  0  0  0  0  0  0  0  0  0  0  0
   -8.9071  207.0631  114.0795 C   0  0  0  0  0  0  0  0  0  0  0  0
  -10.2672  206.7235  114.0496 C   0  0  0  0  0  0  0  0  0  0  0  0
  -11.0970  207.0536  115.1498 C   0  0  0  0  0  0  0  0  0  0  0  0
  -10.5666  207.7932  116.2199 C   0  0  0  0  0  0  0  0  0  0  0  0
   -9.2065  208.1228  116.2397 C   0  0  0  0  0  0  0  0  0  0  0  0
  -15.3579  204.8151  113.7601 C   0  0  0  0  0  0  0  0  0  0  0  0
  -16.6778  204.6654  114.2303 C   0  0  0  0  0  0  0  0  0  0  0  0
  -17.7279  204.9058  113.3505 C   0  0  0  0  0  0  0  0  0  0  0  0
  -17.4879  205.3960  112.0705 C   0  0  0  0  0  0  0  0  0  0  0  0
  -16.1880  205.4057  111.5803 C   0  0  0  0  0  0  0  0  0  0  0  0
  -15.1080  205.1452  112.4201 C   0  0  0  0  0  0  0  0  0  0  0  0
  -12.5171  206.5940  115.2400 C   0  0  0  0  0  0  0  0  0  0  0  0
  -13.3068  207.0741  116.0401 O   0  0  0  0  0  0  0  0  0  0  0  0
  -12.8275  205.4842  114.4598 N   0  0  0  0  0  0  0  0  0  0  0  0
   -6.9967  207.9023  115.1493 O   0  0  0  0  0  0  0  0  0  0  0  0
   -5.0066  207.7515  116.4490 C   0  0  0  0  0  0  0  0  0  0  0  0
   -6.4264  208.2619  116.4293 C   0  0  0  0  0  0  0  0  0  0  0  0
   -6.3959  209.7619  116.5595 C   0  0  0  0  0  0  0  0  0  0  0  0
  -13.9878  204.4145  114.8598 S   0  0  0  0  0  0  0  0  0  0  0  0
  -13.4483  203.1544  114.3895 O   0  0  0  0  0  0  0  0  0  0  0  0
  -14.4076  204.5644  116.2299 O   0  0  0  0  0  0  0  0  0  0  0  0
  -18.5580  205.6464  111.2307 N   0  0  0  0  0  0  0  0  0  0  0  0
  1  2  1  0  0  0  0
  1  6  1  0  0  0  0
  1 16  1  0  0  0  0
  2  3  1  0  0  0  0
  3  4  1  0  0  0  0
  4  5  1  0  0  0  0
  4 13  1  0  0  0  0
  5  6  1  0  0  0  0
  7  8  1  0  0  0  0
  7 12  1  0  0  0  0
  7 20  1  0  0  0  0
  8  9  1  0  0  0  0
  9 10  1  0  0  0  0
 10 11  1  0  0  0  0
 10 23  1  0  0  0  0
 11 12  1  0  0  0  0
 13 14  1  0  0  0  0
 13 15  1  0  0  0  0
 15 20  1  0  0  0  0
 16 18  1  0  0  0  0
 17 18  1  0  0  0  0
 18 19  1  0  0  0  0
 20 21  1  0  0  0  0
 20 22  1  0  0  0  0
M  END
$$$$
