step2_200_2000_5.0_4094.xyz.gro
  PyMOL2.5          3D                             0

 23 24  0  0  0  0  0  0  0  0999 V2000
   -6.3982  208.8697  114.1875 C   0  0  0  0  0  0  0  0  0  0  0  0
   -7.2082  209.2299  113.1176 C   0  0  0  0  0  0  0  0  0  0  0  0
   -8.4884  208.6904  112.9779 C   0  0  0  0  0  0  0  0  0  0  0  0
   -8.9587  207.7606  113.9280 C   0  0  0  0  0  0  0  0  0  0  0  0
   -8.1486  207.4204  115.0279 C   0  0  0  0  0  0  0  0  0  0  0  0
   -6.8784  207.9799  115.1677 C   0  0  0  0  0  0  0  0  0  0  0  0
  -13.0297  205.6720  111.9287 C   0  0  0  0  0  0  0  0  0  0  0  0
  -13.6396  205.4523  113.1788 C   0  0  0  0  0  0  0  0  0  0  0  0
  -15.0396  205.3428  113.2390 C   0  0  0  0  0  0  0  0  0  0  0  0
  -15.7998  205.4030  112.0791 C   0  0  0  0  0  0  0  0  0  0  0  0
  -15.1998  205.7127  110.8690 C   0  0  0  0  0  0  0  0  0  0  0  0
  -13.8098  205.8222  110.7688 C   0  0  0  0  0  0  0  0  0  0  0  0
  -10.2390  207.0111  113.7482 C   0  0  0  0  0  0  0  0  0  0  0  0
  -10.7291  206.3213  114.6383 O   0  0  0  0  0  0  0  0  0  0  0  0
  -10.7191  206.9812  112.4483 N   0  0  0  0  0  0  0  0  0  0  0  0
   -5.1180  209.4193  114.1573 O   0  0  0  0  0  0  0  0  0  0  0  0
   -2.9178  209.5585  114.9970 C   0  0  0  0  0  0  0  0  0  0  0  0
   -4.3379  209.1790  115.3272 C   0  0  0  0  0  0  0  0  0  0  0  0
   -4.8175  210.0493  116.4672 C   0  0  0  0  0  0  0  0  0  0  0  0
  -11.2297  205.5913  111.7985 S   0  0  0  0  0  0  0  0  0  0  0  0
  -10.8399  205.7911  110.4184 O   0  0  0  0  0  0  0  0  0  0  0  0
  -10.7401  204.4512  112.5385 O   0  0  0  0  0  0  0  0  0  0  0  0
  -17.1998  205.3835  112.1693 N   0  0  0  0  0  0  0  0  0  0  0  0
  1  2  1  0  0  0  0
  1  6  1  0  0  0  0
  1 16  1  0  0  0  0
  2  3  1  0  0  0  0
  3  4  1  0  0  0  0
  4  5  1  0  0  0  0
  4 13  1  0  0  0  0
  5  6  1  0  0  0  0
  7  8  1  0  0  0  0
  7 12  1  0  0  0  0
  7 20  1  0  0  0  0
  8  9  1  0  0  0  0
  9 10  1  0  0  0  0
 10 11  1  0  0  0  0
 10 23  1  0  0  0  0
 11 12  1  0  0  0  0
 13 14  1  0  0  0  0
 13 15  1  0  0  0  0
 15 20  1  0  0  0  0
 16 18  1  0  0  0  0
 17 18  1  0  0  0  0
 18 19  1  0  0  0  0
 20 21  1  0  0  0  0
 20 22  1  0  0  0  0
M  END
$$$$
