step2_200_2000_5.0_27766.xyz.gro
  PyMOL2.5          3D                             0

 23 24  0  0  0  0  0  0  0  0999 V2000
   -9.6824  206.4921  115.3785 C   0  0  0  0  0  0  0  0  0  0  0  0
  -10.1819  207.3827  114.4188 C   0  0  0  0  0  0  0  0  0  0  0  0
  -11.5319  207.3436  114.0688 C   0  0  0  0  0  0  0  0  0  0  0  0
  -12.3924  206.4038  114.6684 C   0  0  0  0  0  0  0  0  0  0  0  0
  -11.8829  205.5032  115.6181 C   0  0  0  0  0  0  0  0  0  0  0  0
  -10.5329  205.5423  115.9681 C   0  0  0  0  0  0  0  0  0  0  0  0
  -16.5128  205.7168  112.6682 C   0  0  0  0  0  0  0  0  0  0  0  0
  -17.8528  205.6873  113.0782 C   0  0  0  0  0  0  0  0  0  0  0  0
  -18.7824  206.5280  112.4685 C   0  0  0  0  0  0  0  0  0  0  0  0
  -18.4120  207.3282  111.3888 C   0  0  0  0  0  0  0  0  0  0  0  0
  -17.0819  207.3577  110.9988 C   0  0  0  0  0  0  0  0  0  0  0  0
  -16.1224  206.5470  111.5985 C   0  0  0  0  0  0  0  0  0  0  0  0
  -13.8424  206.4947  114.2985 C   0  0  0  0  0  0  0  0  0  0  0  0
  -14.2819  207.3952  113.6088 O   0  0  0  0  0  0  0  0  0  0  0  0
  -14.6730  205.4550  114.6981 N   0  0  0  0  0  0  0  0  0  0  0  0
   -8.3624  206.4512  115.8384 O   0  0  0  0  0  0  0  0  0  0  0  0
   -7.1121  207.0213  113.7887 C   0  0  0  0  0  0  0  0  0  0  0  0
   -7.4319  207.3710  115.2288 C   0  0  0  0  0  0  0  0  0  0  0  0
   -7.8011  208.8311  115.4193 C   0  0  0  0  0  0  0  0  0  0  0  0
  -15.2834  204.6058  113.4378 S   0  0  0  0  0  0  0  0  0  0  0  0
  -14.2335  204.3556  112.4877 O   0  0  0  0  0  0  0  0  0  0  0  0
  -16.0240  203.4960  114.0074 O   0  0  0  0  0  0  0  0  0  0  0  0
  -19.3115  208.2489  110.8891 N   0  0  0  0  0  0  0  0  0  0  0  0
  1  2  1  0  0  0  0
  1  6  1  0  0  0  0
  1 16  1  0  0  0  0
  2  3  1  0  0  0  0
  3  4  1  0  0  0  0
  4  5  1  0  0  0  0
  4 13  1  0  0  0  0
  5  6  1  0  0  0  0
  7  8  1  0  0  0  0
  7 12  1  0  0  0  0
  7 20  1  0  0  0  0
  8  9  1  0  0  0  0
  9 10  1  0  0  0  0
 10 11  1  0  0  0  0
 10 23  1  0  0  0  0
 11 12  1  0  0  0  0
 13 14  1  0  0  0  0
 13 15  1  0  0  0  0
 15 20  1  0  0  0  0
 16 18  1  0  0  0  0
 17 18  1  0  0  0  0
 18 19  1  0  0  0  0
 20 21  1  0  0  0  0
 20 22  1  0  0  0  0
M  END
$$$$
