# created with PyMOL 2.5.0
@<TRIPOS>MOLECULE
MOL
28 31 1                 
SMALL
USER_CHARGES
@<TRIPOS>ATOM
1	  N1	6.120	12.257	23.583	N.pl3	1	UNK0	0.000	
2	  C1	6.432	13.391	24.194	C.2	1	UNK0	0.000	
3	  N2	7.584	14.062	24.394	N.2	1	UNK0	0.000	
4	  C2	7.587	15.207	25.056	C.2	1	UNK0	0.000	
5	  N3	6.469	15.721	25.547	N.2	1	UNK0	0.000	
6	  C3	5.288	15.111	25.396	C.2	1	UNK0	0.000	
7	  N4	4.180	15.635	25.897	N.pl3	1	UNK0	0.000	
8	  C4	5.245	13.906	24.705	C.2	1	UNK0	0.000	
9	  N5	4.263	13.064	24.385	N.2	1	UNK0	0.000	
10	  C5	4.810	12.059	23.709	C.2	1	UNK0	0.000	
11	  C6	7.036	11.411	22.795	C.3	1	UNK0	0.000	
12	  C7	7.969	10.597	23.697	C.3	1	UNK0	0.000	
13	  C8	8.156	9.183	23.157	C.3	1	UNK0	0.000	
14	  N6	6.855	8.581	22.796	N.3	1	UNK0	0.000	
15	  C9	7.401	6.943	24.545	C.3	1	UNK0	0.000	
16	 C10	6.309	7.819	23.923	C.3	1	UNK0	0.000	
17	 C11	5.166	6.936	23.424	C.3	1	UNK0	0.000	
18	  S1	3.937	10.675	23.083	S.3	1	UNK0	0.000	
19	 C12	2.742	10.434	24.329	C.2	1	UNK0	0.000	
20	 C13	3.005	9.561	25.374	C.2	1	UNK0	0.000	
21	 C14	2.049	9.319	26.350	C.2	1	UNK0	0.000	
22	  O1	2.043	8.506	27.446	O.3	1	UNK0	0.000	
23	 C15	0.643	8.228	27.603	C.3	1	UNK0	0.000	
24	  O2	0.063	9.516	27.326	O.3	1	UNK0	0.000	
25	 C16	0.819	9.959	26.280	C.2	1	UNK0	0.000	
26	 C17	0.545	10.842	25.245	C.2	1	UNK0	0.000	
27	 C18	1.512	11.084	24.269	C.2	1	UNK0	0.000	
28	 Br1	1.137	12.335	22.892	Br	1	UNK0	0.000	
@<TRIPOS>BOND
1 1 2 1
2 1 10 1
3 1 11 1
4 2 3 1
5 2 8 2
6 3 4 2
7 4 5 1
8 5 6 2
9 6 7 1
10 6 8 1
11 8 9 1
12 9 10 2
13 10 18 1
14 11 12 1
15 12 13 1
16 13 14 1
17 14 16 1
18 15 16 1
19 16 17 1
20 18 19 1
21 19 20 1
22 19 27 2
23 20 21 2
24 21 22 1
25 21 25 1
26 22 23 1
27 23 24 1
28 24 25 1
29 25 26 2
30 26 27 1
31 27 28 1
@<TRIPOS>SUBSTRUCTURE
1	UNK0	1	GROUP	1 ****	UNK
