# created with PyMOL 2.5.0
@<TRIPOS>MOLECULE
MOL
28 31 1                 
SMALL
USER_CHARGES
@<TRIPOS>ATOM
1	  N1	5.969	12.357	23.503	N.pl3	1	UNK0	0.000	
2	  C1	6.313	13.622	24.233	C.2	1	UNK0	0.000	
3	  N2	7.483	14.262	24.313	N.2	1	UNK0	0.000	
4	  C2	7.397	15.407	25.056	C.2	1	UNK0	0.000	
5	  N3	6.320	15.942	25.676	N.2	1	UNK0	0.000	
6	  C3	5.149	15.282	25.615	C.2	1	UNK0	0.000	
7	  N4	4.092	15.857	26.286	N.pl3	1	UNK0	0.000	
8	  C4	5.066	14.087	24.884	C.2	1	UNK0	0.000	
9	  N5	3.964	13.015	24.586	N.2	1	UNK0	0.000	
10	  C5	4.510	12.059	23.691	C.2	1	UNK0	0.000	
11	  C6	6.916	11.531	22.795	C.3	1	UNK0	0.000	
12	  C7	7.649	10.658	23.778	C.3	1	UNK0	0.000	
13	  C8	8.006	9.333	23.166	C.3	1	UNK0	0.000	
14	  N6	6.815	8.581	22.806	N.3	1	UNK0	0.000	
15	  C9	7.191	6.964	24.626	C.3	1	UNK0	0.000	
16	 C10	6.209	7.900	23.943	C.3	1	UNK0	0.000	
17	 C11	5.036	7.087	23.444	C.3	1	UNK0	0.000	
18	  S1	3.777	10.605	23.084	S.3	1	UNK0	0.000	
19	 C12	2.491	10.434	24.290	C.2	1	UNK0	0.000	
20	 C13	2.775	9.551	25.355	C.2	1	UNK0	0.000	
21	 C14	1.829	9.399	26.340	C.2	1	UNK0	0.000	
22	  O1	1.833	8.467	27.507	O.3	1	UNK0	0.000	
23	 C15	0.334	8.390	27.823	C.3	1	UNK0	0.000	
24	  O2	-0.317	9.737	27.416	O.3	1	UNK0	0.000	
25	 C16	0.549	10.129	26.270	C.2	1	UNK0	0.000	
26	 C17	0.255	10.992	25.235	C.2	1	UNK0	0.000	
27	 C18	1.241	11.134	24.240	C.2	1	UNK0	0.000	
28	 Br1	0.817	12.354	22.833	Br	1	UNK0	0.000	
@<TRIPOS>BOND
1 1 2 1
2 1 10 1
3 1 11 1
4 2 3 1
5 2 8 2
6 3 4 2
7 4 5 1
8 5 6 2
9 6 7 1
10 6 8 1
11 8 9 1
12 9 10 2
13 10 18 1
14 11 12 1
15 12 13 1
16 13 14 1
17 14 16 1
18 15 16 1
19 16 17 1
20 18 19 1
21 19 20 1
22 19 27 2
23 20 21 2
24 21 22 1
25 21 25 1
26 22 23 1
27 23 24 1
28 24 25 1
29 25 26 2
30 26 27 1
31 27 28 1
@<TRIPOS>SUBSTRUCTURE
1	UNK0	1	GROUP	1 ****	UNK
