# created with PyMOL 2.5.0
@<TRIPOS>MOLECULE
MOL
49 52 1                 
SMALL
USER_CHARGES
@<TRIPOS>ATOM
1	 H21	-0.760	11.690	26.330	 H	1	UNK0	0.000	
2	 H05	5.810	10.970	22.910	 H	1	UNK0	0.000	
3	 H07	7.740	10.570	25.260	 H	1	UNK0	0.000	
4	 H19	1.840	9.660	29.970	 H	1	UNK0	0.000	
5	 H20	1.350	8.240	29.010	 H	1	UNK0	0.000	
6	 H18	4.130	10.560	25.820	 H	1	UNK0	0.000	
7	 H04	7.470	11.550	23.050	 H	1	UNK0	0.000	
8	 H03	6.700	17.050	27.500	 H	1	UNK0	0.000	
9	 H10	6.360	7.550	22.790	 H	1	UNK0	0.000	
10	 H02	5.230	16.690	26.670	 H	1	UNK0	0.000	
11	 H08	7.400	8.160	24.810	 H	1	UNK0	0.000	
12	 H01	9.770	14.190	26.520	 H	1	UNK0	0.000	
13	 H09	8.110	9.020	23.440	 H	1	UNK0	0.000	
14	 H06	6.050	10.160	25.360	 H	1	UNK0	0.000	
15	 H13	5.360	6.560	24.910	 H	1	UNK0	0.000	
16	 H12	3.950	7.410	25.560	 H	1	UNK0	0.000	
17	 H11	5.570	8.040	25.870	 H	1	UNK0	0.000	
18	 H14	4.470	9.370	24.080	 H	1	UNK0	0.000	
19	 H17	2.870	7.640	23.380	 H	1	UNK0	0.000	
20	 H16	4.180	6.680	22.680	 H	1	UNK0	0.000	
21	 H15	3.760	8.260	21.980	 H	1	UNK0	0.000	
22	  N1	6.100	12.490	24.260	N.pl3	1	UNK0	0.000	
23	  C1	6.980	13.380	25.100	C.2	1	UNK0	0.000	
24	  N2	8.300	13.280	25.360	N.2	1	UNK0	0.000	
25	  C2	8.710	14.230	26.250	C.2	1	UNK0	0.000	
26	  N3	8.000	15.240	26.820	N.2	1	UNK0	0.000	
27	  C3	6.680	15.330	26.560	C.2	1	UNK0	0.000	
28	  N4	6.020	16.350	27.210	N.pl3	1	UNK0	0.000	
29	  C4	6.060	14.420	25.670	C.2	1	UNK0	0.000	
30	  N5	4.580	14.130	25.110	N.2	1	UNK0	0.000	
31	  C5	4.660	12.960	24.290	C.2	1	UNK0	0.000	
32	  C6	6.580	11.290	23.610	C.3	1	UNK0	0.000	
33	  C7	6.880	10.250	24.670	C.3	1	UNK0	0.000	
34	  C8	7.200	8.910	24.040	C.3	1	UNK0	0.000	
35	  N6	6.130	8.470	23.160	N.3	1	UNK0	0.000	
36	  C9	4.950	7.550	25.120	C.3	1	UNK0	0.000	
37	 C10	4.840	8.370	23.850	C.3	1	UNK0	0.000	
38	 C11	3.860	7.700	22.920	C.3	1	UNK0	0.000	
39	  S1	3.380	12.080	23.520	S.3	1	UNK0	0.000	
40	 C12	2.430	11.620	24.970	C.2	1	UNK0	0.000	
41	 C13	3.090	10.820	25.920	C.2	1	UNK0	0.000	
42	 C14	2.380	10.350	27.000	C.2	1	UNK0	0.000	
43	  O1	2.880	9.460	28.080	O.3	1	UNK0	0.000	
44	 C15	1.610	9.300	28.960	C.3	1	UNK0	0.000	
45	  O2	0.380	10.080	28.410	O.3	1	UNK0	0.000	
46	 C16	0.950	10.690	27.170	C.2	1	UNK0	0.000	
47	 C17	0.300	11.480	26.230	C.2	1	UNK0	0.000	
48	 C18	1.060	11.950	25.140	C.2	1	UNK0	0.000	
49	 Br1	0.150	13.080	23.890	Br	1	UNK0	0.000	
@<TRIPOS>BOND
1 22 23 1
2 22 31 1
3 22 32 1
4 23 24 1
5 23 29 2
6 24 25 2
7 12 25 1
8 25 26 1
9 26 27 2
10 27 28 1
11 27 29 1
12 8 28 1
13 10 28 1
14 29 30 1
15 30 31 2
16 31 39 1
17 2 32 1
18 7 32 1
19 32 33 1
20 3 33 1
21 14 33 1
22 33 34 1
23 11 34 1
24 13 34 1
25 34 35 1
26 9 35 1
27 35 37 1
28 15 36 1
29 16 36 1
30 17 36 1
31 36 37 1
32 18 37 1
33 37 38 1
34 19 38 1
35 20 38 1
36 21 38 1
37 39 40 1
38 40 41 1
39 40 48 2
40 6 41 1
41 41 42 2
42 42 43 1
43 42 46 1
44 43 44 1
45 4 44 1
46 5 44 1
47 44 45 1
48 45 46 1
49 46 47 2
50 1 47 1
51 47 48 1
52 48 49 1
@<TRIPOS>SUBSTRUCTURE
1	UNK0	1	GROUP	1 ****	UNK
