# created with PyMOL 2.5.0
@<TRIPOS>MOLECULE
MOL
49 52 1                 
SMALL
USER_CHARGES
@<TRIPOS>ATOM
1	 H21	-0.940	12.120	26.410	 H	1	UNK0	0.000	
2	 H05	5.450	10.230	22.440	 H	1	UNK0	0.000	
3	 H07	7.640	9.640	24.490	 H	1	UNK0	0.000	
4	 H19	0.750	9.460	30.120	 H	1	UNK0	0.000	
5	 H20	-0.170	8.210	29.230	 H	1	UNK0	0.000	
6	 H18	3.260	9.340	25.990	 H	1	UNK0	0.000	
7	 H04	7.110	10.850	22.440	 H	1	UNK0	0.000	
8	 H03	6.600	16.350	26.840	 H	1	UNK0	0.000	
9	 H10	5.290	8.180	21.950	 H	1	UNK0	0.000	
10	 H02	5.040	15.660	26.580	 H	1	UNK0	0.000	
11	 H08	7.580	7.380	23.670	 H	1	UNK0	0.000	
12	 H01	9.690	14.050	24.980	 H	1	UNK0	0.000	
13	 H09	7.680	8.420	22.260	 H	1	UNK0	0.000	
14	 H06	5.990	9.130	24.700	 H	1	UNK0	0.000	
15	 H13	6.170	5.440	24.210	 H	1	UNK0	0.000	
16	 H12	4.880	5.830	25.360	 H	1	UNK0	0.000	
17	 H11	6.300	6.870	25.240	 H	1	UNK0	0.000	
18	 H14	4.420	7.950	24.060	 H	1	UNK0	0.000	
19	 H17	3.110	5.890	23.740	 H	1	UNK0	0.000	
20	 H16	4.270	5.320	22.520	 H	1	UNK0	0.000	
21	 H15	3.270	6.770	22.210	 H	1	UNK0	0.000	
22	  N1	5.860	11.630	23.930	N.pl3	1	UNK0	0.000	
23	  C1	6.800	12.660	24.500	C.2	1	UNK0	0.000	
24	  N2	8.140	12.800	24.340	N.2	1	UNK0	0.000	
25	  C2	8.610	13.880	25.040	C.2	1	UNK0	0.000	
26	  N3	7.950	14.770	25.810	N.2	1	UNK0	0.000	
27	  C3	6.620	14.610	25.990	C.2	1	UNK0	0.000	
28	  N4	6.010	15.520	26.810	N.pl3	1	UNK0	0.000	
29	  C4	5.940	13.550	25.330	C.2	1	UNK0	0.000	
30	  N5	4.430	13.020	25.220	N.2	1	UNK0	0.000	
31	  C5	4.440	11.870	24.390	C.2	1	UNK0	0.000	
32	  C6	6.300	10.490	23.070	C.3	1	UNK0	0.000	
33	  C7	6.730	9.360	23.960	C.3	1	UNK0	0.000	
34	  C8	7.020	8.120	23.080	C.3	1	UNK0	0.000	
35	  N6	5.830	7.530	22.540	N.3	1	UNK0	0.000	
36	  C9	5.620	6.260	24.660	C.3	1	UNK0	0.000	
37	 C10	4.890	7.070	23.590	C.3	1	UNK0	0.000	
38	 C11	3.830	6.230	22.980	C.3	1	UNK0	0.000	
39	  S1	3.130	10.970	23.680	S.3	1	UNK0	0.000	
40	 C12	2.040	10.920	25.110	C.2	1	UNK0	0.000	
41	 C13	2.380	9.950	26.070	C.2	1	UNK0	0.000	
42	 C14	1.530	9.790	27.150	C.2	1	UNK0	0.000	
43	  O1	1.690	8.830	28.280	O.3	1	UNK0	0.000	
44	 C15	0.420	9.140	29.130	C.3	1	UNK0	0.000	
45	  O2	-0.470	10.240	28.510	O.3	1	UNK0	0.000	
46	 C16	0.290	10.590	27.280	C.2	1	UNK0	0.000	
47	 C17	-0.030	11.540	26.320	C.2	1	UNK0	0.000	
48	 C18	0.850	11.700	25.240	C.2	1	UNK0	0.000	
49	 Br1	0.360	13.020	23.940	Br	1	UNK0	0.000	
@<TRIPOS>BOND
1 22 23 1
2 22 31 1
3 22 32 1
4 23 24 1
5 23 29 2
6 24 25 2
7 12 25 1
8 25 26 1
9 26 27 2
10 27 28 1
11 27 29 1
12 8 28 1
13 10 28 1
14 29 30 1
15 30 31 2
16 31 39 1
17 2 32 1
18 7 32 1
19 32 33 1
20 3 33 1
21 14 33 1
22 33 34 1
23 11 34 1
24 13 34 1
25 34 35 1
26 9 35 1
27 35 37 1
28 15 36 1
29 16 36 1
30 17 36 1
31 36 37 1
32 18 37 1
33 37 38 1
34 19 38 1
35 20 38 1
36 21 38 1
37 39 40 1
38 40 41 1
39 40 48 2
40 6 41 1
41 41 42 2
42 42 43 1
43 42 46 1
44 43 44 1
45 4 44 1
46 5 44 1
47 44 45 1
48 45 46 1
49 46 47 2
50 1 47 1
51 47 48 1
52 48 49 1
@<TRIPOS>SUBSTRUCTURE
1	UNK0	1	GROUP	1 ****	UNK
