# created with PyMOL 2.5.0
@<TRIPOS>MOLECULE
MOL
28 31 1                 
SMALL
USER_CHARGES
@<TRIPOS>ATOM
1	  N1	6.458	12.447	23.857	N.pl3	1	UNK0	0.000	
2	  C1	7.427	13.045	24.855	C.2	1	UNK0	0.000	
3	  N2	8.723	13.377	24.670	N.2	1	UNK0	0.000	
4	  C2	9.277	13.840	25.830	C.2	1	UNK0	0.000	
5	  N3	8.719	14.014	27.054	N.2	1	UNK0	0.000	
6	  C3	7.424	13.633	27.228	C.2	1	UNK0	0.000	
7	  N4	7.023	13.776	28.536	N.pl3	1	UNK0	0.000	
8	  C4	6.687	13.127	26.150	C.2	1	UNK0	0.000	
9	  N5	5.199	12.532	25.903	N.2	1	UNK0	0.000	
10	  C5	5.113	12.156	24.511	C.2	1	UNK0	0.000	
11	  C6	6.731	12.142	22.510	C.3	1	UNK0	0.000	
12	  C7	7.174	10.687	22.391	C.3	1	UNK0	0.000	
13	  C8	7.430	10.304	20.972	C.3	1	UNK0	0.000	
14	  N6	6.180	10.341	20.155	N.3	1	UNK0	0.000	
15	  C9	5.776	8.005	20.868	C.3	1	UNK0	0.000	
16	 C10	5.216	9.406	20.642	C.3	1	UNK0	0.000	
17	 C11	4.065	9.316	19.626	C.3	1	UNK0	0.000	
18	  S1	3.869	11.293	23.688	S.3	1	UNK0	0.000	
19	 C12	2.650	11.152	24.970	C.2	1	UNK0	0.000	
20	 C13	2.582	9.909	25.626	C.2	1	UNK0	0.000	
21	 C14	1.615	9.745	26.607	C.2	1	UNK0	0.000	
22	  O1	1.371	8.539	27.437	O.3	1	UNK0	0.000	
23	 C15	0.183	9.005	28.331	C.3	1	UNK0	0.000	
24	  O2	-0.264	10.458	28.020	O.3	1	UNK0	0.000	
25	 C16	0.686	10.843	26.942	C.2	1	UNK0	0.000	
26	 C17	0.773	12.066	26.297	C.2	1	UNK0	0.000	
27	 C18	1.741	12.200	25.295	C.2	1	UNK0	0.000	
28	 Br1	1.766	13.877	24.376	Br	1	UNK0	0.000	
@<TRIPOS>BOND
1 1 2 1
2 1 10 1
3 1 11 1
4 2 3 1
5 2 8 2
6 3 4 2
7 4 5 1
8 5 6 2
9 6 7 1
10 6 8 1
11 8 9 1
12 9 10 2
13 10 18 1
14 11 12 1
15 12 13 1
16 13 14 1
17 14 16 1
18 15 16 1
19 16 17 1
20 18 19 1
21 19 20 1
22 19 27 2
23 20 21 2
24 21 22 1
25 21 25 1
26 22 23 1
27 23 24 1
28 24 25 1
29 25 26 2
30 26 27 1
31 27 28 1
@<TRIPOS>SUBSTRUCTURE
1	UNK0	1	GROUP	1 ****	UNK
