# created with PyMOL 2.5.0
@<TRIPOS>MOLECULE
MOL
28 31 1                 
SMALL
USER_CHARGES
@<TRIPOS>ATOM
1	  N1	5.644	11.897	23.876	N.pl3	1	UNK0	0.000	
2	  C1	6.492	12.865	24.661	C.2	1	UNK0	0.000	
3	  N2	7.820	12.845	24.896	N.2	1	UNK0	0.000	
4	  C2	8.197	13.851	25.738	C.2	1	UNK0	0.000	
5	  N3	7.445	14.845	26.283	N.2	1	UNK0	0.000	
6	  C3	6.118	14.855	26.048	C.2	1	UNK0	0.000	
7	  N4	5.417	15.865	26.671	N.pl3	1	UNK0	0.000	
8	  C4	5.529	13.879	25.209	C.2	1	UNK0	0.000	
9	  N5	4.056	13.489	24.693	N.2	1	UNK0	0.000	
10	  C5	4.182	12.292	23.919	C.2	1	UNK0	0.000	
11	  C6	6.174	10.698	23.265	C.3	1	UNK0	0.000	
12	  C7	6.550	9.720	24.358	C.3	1	UNK0	0.000	
13	  C8	6.928	8.373	23.776	C.3	1	UNK0	0.000	
14	  N6	5.866	7.842	22.937	N.3	1	UNK0	0.000	
15	  C9	4.775	6.943	24.958	C.3	1	UNK0	0.000	
16	 C10	4.596	7.704	23.659	C.3	1	UNK0	0.000	
17	 C11	3.635	6.946	22.778	C.3	1	UNK0	0.000	
18	  S1	2.936	11.316	23.213	S.3	1	UNK0	0.000	
19	 C12	2.040	10.867	24.700	C.2	1	UNK0	0.000	
20	 C13	2.760	10.142	25.667	C.2	1	UNK0	0.000	
21	 C14	2.097	9.680	26.780	C.2	1	UNK0	0.000	
22	  O1	2.665	8.862	27.884	O.3	1	UNK0	0.000	
23	 C15	1.423	8.672	28.797	C.3	1	UNK0	0.000	
24	  O2	0.142	9.364	28.243	O.3	1	UNK0	0.000	
25	 C16	0.655	9.952	26.967	C.2	1	UNK0	0.000	
26	 C17	-0.054	10.667	26.011	C.2	1	UNK0	0.000	
27	 C18	0.658	11.131	24.887	C.2	1	UNK0	0.000	
28	 Br1	-0.335	12.160	23.613	Br	1	UNK0	0.000	
@<TRIPOS>BOND
1 1 2 1
2 1 10 1
3 1 11 1
4 2 3 1
5 2 8 2
6 3 4 2
7 4 5 1
8 5 6 2
9 6 7 1
10 6 8 1
11 8 9 1
12 9 10 2
13 10 18 1
14 11 12 1
15 12 13 1
16 13 14 1
17 14 16 1
18 15 16 1
19 16 17 1
20 18 19 1
21 19 20 1
22 19 27 2
23 20 21 2
24 21 22 1
25 21 25 1
26 22 23 1
27 23 24 1
28 24 25 1
29 25 26 2
30 26 27 1
31 27 28 1
@<TRIPOS>SUBSTRUCTURE
1	UNK0	1	GROUP	1 ****	UNK
