# created with PyMOL 2.5.0
@<TRIPOS>MOLECULE
MOL
28 31 1                 
SMALL
USER_CHARGES
@<TRIPOS>ATOM
1	  N1	4.209	12.010	23.696	N.pl3	1	UNK0	0.000	
2	  C1	4.607	13.156	24.592	C.2	1	UNK0	0.000	
3	  N2	5.781	13.819	24.656	N.2	1	UNK0	0.000	
4	  C2	5.735	14.802	25.617	C.2	1	UNK0	0.000	
5	  N3	4.715	15.151	26.444	N.2	1	UNK0	0.000	
6	  C3	3.560	14.457	26.399	C.2	1	UNK0	0.000	
7	  N4	2.590	14.832	27.287	N.pl3	1	UNK0	0.000	
8	  C4	3.395	13.418	25.436	C.2	1	UNK0	0.000	
9	  N5	2.241	12.390	24.987	N.2	1	UNK0	0.000	
10	  C5	2.780	11.569	23.961	C.2	1	UNK0	0.000	
11	  C6	5.123	11.368	22.757	C.3	1	UNK0	0.000	
12	  C7	6.015	10.417	23.507	C.3	1	UNK0	0.000	
13	  C8	6.672	9.452	22.525	C.3	1	UNK0	0.000	
14	  N6	5.634	8.774	21.780	N.3	1	UNK0	0.000	
15	  C9	5.776	6.751	23.208	C.3	1	UNK0	0.000	
16	 C10	4.867	7.835	22.614	C.3	1	UNK0	0.000	
17	 C11	3.850	7.182	21.729	C.3	1	UNK0	0.000	
18	  S1	2.069	10.261	23.029	S.3	1	UNK0	0.000	
19	 C12	0.920	9.666	24.239	C.2	1	UNK0	0.000	
20	 C13	1.390	8.582	25.034	C.2	1	UNK0	0.000	
21	 C14	0.532	8.091	25.997	C.2	1	UNK0	0.000	
22	  O1	0.843	7.023	27.004	O.3	1	UNK0	0.000	
23	 C15	-0.455	6.997	27.837	C.3	1	UNK0	0.000	
24	  O2	-1.526	8.001	27.340	O.3	1	UNK0	0.000	
25	 C16	-0.816	8.643	26.193	C.2	1	UNK0	0.000	
26	 C17	-1.276	9.676	25.385	C.2	1	UNK0	0.000	
27	 C18	-0.399	10.158	24.402	C.2	1	UNK0	0.000	
28	 Br1	-1.093	11.559	23.290	Br	1	UNK0	0.000	
@<TRIPOS>BOND
1 1 2 1
2 1 10 1
3 1 11 1
4 2 3 1
5 2 8 2
6 3 4 2
7 4 5 1
8 5 6 2
9 6 7 1
10 6 8 1
11 8 9 1
12 9 10 2
13 10 18 1
14 11 12 1
15 12 13 1
16 13 14 1
17 14 16 1
18 15 16 1
19 16 17 1
20 18 19 1
21 19 20 1
22 19 27 2
23 20 21 2
24 21 22 1
25 21 25 1
26 22 23 1
27 23 24 1
28 24 25 1
29 25 26 2
30 26 27 1
31 27 28 1
@<TRIPOS>SUBSTRUCTURE
1	UNK0	1	GROUP	1 ****	UNK
