# created with PyMOL 2.5.0
@<TRIPOS>MOLECULE
MOL
49 52 1                 
SMALL
USER_CHARGES
@<TRIPOS>ATOM
1	 H21	-0.110	11.900	26.410	 H	1	UNK0	0.000	
2	 H05	6.580	10.810	22.490	 H	1	UNK0	0.000	
3	 H07	7.820	10.090	25.180	 H	1	UNK0	0.000	
4	 H19	1.860	9.320	30.020	 H	1	UNK0	0.000	
5	 H20	1.070	8.000	29.120	 H	1	UNK0	0.000	
6	 H18	4.340	9.530	25.870	 H	1	UNK0	0.000	
7	 H04	8.210	11.330	22.970	 H	1	UNK0	0.000	
8	 H03	6.850	16.860	27.110	 H	1	UNK0	0.000	
9	 H10	7.440	8.940	21.670	 H	1	UNK0	0.000	
10	 H02	5.360	16.140	26.590	 H	1	UNK0	0.000	
11	 H08	8.440	7.930	24.290	 H	1	UNK0	0.000	
12	 H01	10.220	14.570	25.750	 H	1	UNK0	0.000	
13	 H09	9.190	9.170	23.320	 H	1	UNK0	0.000	
14	 H06	6.370	9.400	24.480	 H	1	UNK0	0.000	
15	 H13	7.440	5.760	23.460	 H	1	UNK0	0.000	
16	 H12	5.690	5.770	23.750	 H	1	UNK0	0.000	
17	 H11	6.740	6.850	24.670	 H	1	UNK0	0.000	
18	 H14	5.610	8.150	22.930	 H	1	UNK0	0.000	
19	 H17	5.060	6.210	21.480	 H	1	UNK0	0.000	
20	 H16	6.760	6.090	20.990	 H	1	UNK0	0.000	
21	 H15	5.810	7.520	20.540	 H	1	UNK0	0.000	
22	  N1	6.670	12.110	24.090	N.pl3	1	UNK0	0.000	
23	  C1	7.480	13.180	24.780	C.2	1	UNK0	0.000	
24	  N2	8.820	13.340	24.840	N.2	1	UNK0	0.000	
25	  C2	9.160	14.410	25.620	C.2	1	UNK0	0.000	
26	  N3	8.370	15.280	26.300	N.2	1	UNK0	0.000	
27	  C3	7.030	15.100	26.240	C.2	1	UNK0	0.000	
28	  N4	6.300	16.020	26.980	N.pl3	1	UNK0	0.000	
29	  C4	6.480	14.040	25.490	C.2	1	UNK0	0.000	
30	  N5	5.010	13.450	25.180	N.2	1	UNK0	0.000	
31	  C5	5.190	12.300	24.360	C.2	1	UNK0	0.000	
32	  C6	7.230	11.000	23.340	C.3	1	UNK0	0.000	
33	  C7	7.360	9.790	24.230	C.3	1	UNK0	0.000	
34	  C8	8.220	8.730	23.580	C.3	1	UNK0	0.000	
35	  N6	7.640	8.200	22.360	N.3	1	UNK0	0.000	
36	  C9	6.580	6.400	23.690	C.3	1	UNK0	0.000	
37	 C10	6.400	7.460	22.620	C.3	1	UNK0	0.000	
38	 C11	5.990	6.780	21.330	C.3	1	UNK0	0.000	
39	  S1	4.010	11.250	23.660	S.3	1	UNK0	0.000	
40	 C12	2.960	11.020	25.060	C.2	1	UNK0	0.000	
41	 C13	3.390	10.060	25.990	C.2	1	UNK0	0.000	
42	 C14	2.580	9.770	27.060	C.2	1	UNK0	0.000	
43	  O1	2.840	8.810	28.160	O.3	1	UNK0	0.000	
44	 C15	1.560	8.970	29.040	C.3	1	UNK0	0.000	
45	  O2	0.550	9.990	28.430	O.3	1	UNK0	0.000	
46	 C16	1.260	10.450	27.210	C.2	1	UNK0	0.000	
47	 C17	0.850	11.390	26.300	C.2	1	UNK0	0.000	
48	 C18	1.710	11.690	25.230	C.2	1	UNK0	0.000	
49	 Br1	1.120	13.050	24.020	Br	1	UNK0	0.000	
@<TRIPOS>BOND
1 22 23 1
2 22 31 1
3 22 32 1
4 23 24 1
5 23 29 2
6 24 25 2
7 12 25 1
8 25 26 1
9 26 27 2
10 27 28 1
11 27 29 1
12 8 28 1
13 10 28 1
14 29 30 1
15 30 31 2
16 31 39 1
17 2 32 1
18 7 32 1
19 32 33 1
20 3 33 1
21 14 33 1
22 33 34 1
23 11 34 1
24 13 34 1
25 34 35 1
26 9 35 1
27 35 37 1
28 15 36 1
29 16 36 1
30 17 36 1
31 36 37 1
32 18 37 1
33 37 38 1
34 19 38 1
35 20 38 1
36 21 38 1
37 39 40 1
38 40 41 1
39 40 48 2
40 6 41 1
41 41 42 2
42 42 43 1
43 42 46 1
44 43 44 1
45 4 44 1
46 5 44 1
47 44 45 1
48 45 46 1
49 46 47 2
50 1 47 1
51 47 48 1
52 48 49 1
@<TRIPOS>SUBSTRUCTURE
1	UNK0	1	GROUP	1 ****	UNK
