# created with PyMOL 2.5.0
@<TRIPOS>MOLECULE
MOL
49 52 1                 
SMALL
USER_CHARGES
@<TRIPOS>ATOM
1	 H21	-0.090	10.800	26.030	 H	1	UNK0	0.000	
2	 H05	6.230	8.710	22.280	 H	1	UNK0	0.000	
3	 H07	7.610	8.840	24.980	 H	1	UNK0	0.000	
4	 H19	1.560	7.510	29.210	 H	1	UNK0	0.000	
5	 H20	0.450	6.510	28.250	 H	1	UNK0	0.000	
6	 H18	3.730	7.690	24.870	 H	1	UNK0	0.000	
7	 H04	7.840	9.460	22.420	 H	1	UNK0	0.000	
8	 H03	6.620	15.620	25.470	 H	1	UNK0	0.000	
9	 H10	8.080	6.950	21.730	 H	1	UNK0	0.000	
10	 H02	5.130	14.850	25.070	 H	1	UNK0	0.000	
11	 H08	8.700	6.710	24.620	 H	1	UNK0	0.000	
12	 H01	9.950	12.970	24.840	 H	1	UNK0	0.000	
13	 H09	9.300	7.910	23.500	 H	1	UNK0	0.000	
14	 H06	6.400	7.700	24.450	 H	1	UNK0	0.000	
15	 H13	7.850	4.130	23.960	 H	1	UNK0	0.000	
16	 H12	6.090	4.190	24.150	 H	1	UNK0	0.000	
17	 H11	7.100	5.390	24.960	 H	1	UNK0	0.000	
18	 H14	6.050	6.370	22.910	 H	1	UNK0	0.000	
19	 H17	5.760	4.210	21.730	 H	1	UNK0	0.000	
20	 H16	7.500	4.120	21.460	 H	1	UNK0	0.000	
21	 H15	6.560	5.410	20.700	 H	1	UNK0	0.000	
22	  N1	6.350	10.380	23.500	N.pl3	1	UNK0	0.000	
23	  C1	7.180	11.510	24.090	C.2	1	UNK0	0.000	
24	  N2	8.520	11.630	24.160	N.2	1	UNK0	0.000	
25	  C2	8.880	12.820	24.730	C.2	1	UNK0	0.000	
26	  N3	8.100	13.850	25.150	N.2	1	UNK0	0.000	
27	  C3	6.760	13.700	25.100	C.2	1	UNK0	0.000	
28	  N4	6.030	14.800	25.530	N.pl3	1	UNK0	0.000	
29	  C4	6.190	12.520	24.560	C.2	1	UNK0	0.000	
30	  N5	4.710	11.970	24.240	N.2	1	UNK0	0.000	
31	  C5	4.870	10.690	23.600	C.2	1	UNK0	0.000	
32	  C6	6.940	9.170	22.970	C.3	1	UNK0	0.000	
33	  C7	7.290	8.240	24.120	C.3	1	UNK0	0.000	
34	  C8	8.420	7.310	23.750	C.3	1	UNK0	0.000	
35	  N6	8.140	6.430	22.620	N.3	1	UNK0	0.000	
36	  C9	6.990	4.800	24.050	C.3	1	UNK0	0.000	
37	 C10	6.890	5.680	22.820	C.3	1	UNK0	0.000	
38	 C11	6.670	4.810	21.600	C.3	1	UNK0	0.000	
39	  S1	3.660	9.690	22.870	S.3	1	UNK0	0.000	
40	 C12	2.620	9.480	24.310	C.2	1	UNK0	0.000	
41	 C13	2.930	8.370	25.120	C.2	1	UNK0	0.000	
42	 C14	2.160	8.150	26.250	C.2	1	UNK0	0.000	
43	  O1	2.290	7.040	27.230	O.3	1	UNK0	0.000	
44	 C15	1.130	7.360	28.220	C.3	1	UNK0	0.000	
45	  O2	0.340	8.630	27.820	O.3	1	UNK0	0.000	
46	 C16	1.040	9.060	26.580	C.2	1	UNK0	0.000	
47	 C17	0.740	10.140	25.780	C.2	1	UNK0	0.000	
48	 C18	1.530	10.350	24.640	C.2	1	UNK0	0.000	
49	 Br1	1.050	11.850	23.570	Br	1	UNK0	0.000	
@<TRIPOS>BOND
1 22 23 1
2 22 31 1
3 22 32 1
4 23 24 1
5 23 29 2
6 24 25 2
7 12 25 1
8 25 26 1
9 26 27 2
10 27 28 1
11 27 29 1
12 8 28 1
13 10 28 1
14 29 30 1
15 30 31 2
16 31 39 1
17 2 32 1
18 7 32 1
19 32 33 1
20 3 33 1
21 14 33 1
22 33 34 1
23 11 34 1
24 13 34 1
25 34 35 1
26 9 35 1
27 35 37 1
28 15 36 1
29 16 36 1
30 17 36 1
31 36 37 1
32 18 37 1
33 37 38 1
34 19 38 1
35 20 38 1
36 21 38 1
37 39 40 1
38 40 41 1
39 40 48 2
40 6 41 1
41 41 42 2
42 42 43 1
43 42 46 1
44 43 44 1
45 4 44 1
46 5 44 1
47 44 45 1
48 45 46 1
49 46 47 2
50 1 47 1
51 47 48 1
52 48 49 1
@<TRIPOS>SUBSTRUCTURE
1	UNK0	1	GROUP	1 ****	UNK
