# created with PyMOL 2.5.0
@<TRIPOS>MOLECULE
MOL
28 31 1                 
SMALL
USER_CHARGES
@<TRIPOS>ATOM
1	  N1	5.834	9.434	23.268	N.pl3	1	UNK0	0.000	
2	  C1	6.633	10.602	23.826	C.2	1	UNK0	0.000	
3	  N2	7.969	10.745	23.926	N.2	1	UNK0	0.000	
4	  C2	8.297	11.966	24.448	C.2	1	UNK0	0.000	
5	  N3	7.492	13.003	24.797	N.2	1	UNK0	0.000	
6	  C3	6.156	12.831	24.718	C.2	1	UNK0	0.000	
7	  N4	5.400	13.940	25.076	N.pl3	1	UNK0	0.000	
8	  C4	5.617	11.619	24.220	C.2	1	UNK0	0.000	
9	  N5	4.154	11.033	23.887	N.2	1	UNK0	0.000	
10	  C5	4.348	9.726	23.313	C.2	1	UNK0	0.000	
11	  C6	6.455	8.209	22.812	C.3	1	UNK0	0.000	
12	  C7	6.785	7.339	24.015	C.3	1	UNK0	0.000	
13	  C8	7.938	6.409	23.720	C.3	1	UNK0	0.000	
14	  N6	7.701	5.473	22.626	N.3	1	UNK0	0.000	
15	  C9	6.533	3.896	24.101	C.3	1	UNK0	0.000	
16	 C10	6.456	4.715	22.828	C.3	1	UNK0	0.000	
17	 C11	6.281	3.785	21.645	C.3	1	UNK0	0.000	
18	  S1	3.172	8.675	22.600	S.3	1	UNK0	0.000	
19	 C12	2.096	8.519	24.019	C.2	1	UNK0	0.000	
20	 C13	2.398	7.453	24.889	C.2	1	UNK0	0.000	
21	 C14	1.600	7.275	26.008	C.2	1	UNK0	0.000	
22	  O1	1.718	6.215	27.042	O.3	1	UNK0	0.000	
23	 C15	0.527	6.564	27.985	C.3	1	UNK0	0.000	
24	  O2	-0.269	7.802	27.503	O.3	1	UNK0	0.000	
25	 C16	0.460	8.183	26.263	C.2	1	UNK0	0.000	
26	 C17	0.167	9.220	25.405	C.2	1	UNK0	0.000	
27	 C18	0.986	9.387	24.278	C.2	1	UNK0	0.000	
28	 Br1	0.515	10.828	23.125	Br	1	UNK0	0.000	
@<TRIPOS>BOND
1 1 2 1
2 1 10 1
3 1 11 1
4 2 3 1
5 2 8 2
6 3 4 2
7 4 5 1
8 5 6 2
9 6 7 1
10 6 8 1
11 8 9 1
12 9 10 2
13 10 18 1
14 11 12 1
15 12 13 1
16 13 14 1
17 14 16 1
18 15 16 1
19 16 17 1
20 18 19 1
21 19 20 1
22 19 27 2
23 20 21 2
24 21 22 1
25 21 25 1
26 22 23 1
27 23 24 1
28 24 25 1
29 25 26 2
30 26 27 1
31 27 28 1
@<TRIPOS>SUBSTRUCTURE
1	UNK0	1	GROUP	1 ****	UNK
