# created with PyMOL 2.5.0
@<TRIPOS>MOLECULE
MOL
28 31 1                 
SMALL
USER_CHARGES
@<TRIPOS>ATOM
1	  N1	6.088	10.497	23.768	N.pl3	1	UNK0	0.000	
2	  C1	7.021	11.503	24.389	C.2	1	UNK0	0.000	
3	  N2	8.367	11.630	24.274	N.2	1	UNK0	0.000	
4	  C2	8.827	12.689	25.011	C.2	1	UNK0	0.000	
5	  N3	8.154	13.571	25.779	N.2	1	UNK0	0.000	
6	  C3	6.817	13.424	25.913	C.2	1	UNK0	0.000	
7	  N4	6.192	14.324	26.733	N.pl3	1	UNK0	0.000	
8	  C4	6.146	12.386	25.210	C.2	1	UNK0	0.000	
9	  N5	4.634	11.877	25.041	N.2	1	UNK0	0.000	
10	  C5	4.657	10.745	24.188	C.2	1	UNK0	0.000	
11	  C6	6.541	9.369	22.899	C.3	1	UNK0	0.000	
12	  C7	6.930	8.216	23.778	C.3	1	UNK0	0.000	
13	  C8	7.233	6.991	22.881	C.3	1	UNK0	0.000	
14	  N6	6.054	6.427	22.292	N.3	1	UNK0	0.000	
15	  C9	5.761	5.116	24.377	C.3	1	UNK0	0.000	
16	 C10	5.075	5.957	23.302	C.3	1	UNK0	0.000	
17	 C11	4.026	5.143	22.641	C.3	1	UNK0	0.000	
18	  S1	3.359	9.876	23.418	S.3	1	UNK0	0.000	
19	 C12	2.224	9.810	24.812	C.2	1	UNK0	0.000	
20	 C13	2.522	8.816	25.761	C.2	1	UNK0	0.000	
21	 C14	1.636	8.644	26.810	C.2	1	UNK0	0.000	
22	  O1	1.749	7.659	27.924	O.3	1	UNK0	0.000	
23	 C15	0.456	7.968	28.740	C.3	1	UNK0	0.000	
24	  O2	-0.401	9.091	28.115	O.3	1	UNK0	0.000	
25	 C16	0.402	9.457	26.918	C.2	1	UNK0	0.000	
26	 C17	0.124	10.431	25.968	C.2	1	UNK0	0.000	
27	 C18	1.040	10.602	24.920	C.2	1	UNK0	0.000	
28	 Br1	0.607	11.954	23.634	Br	1	UNK0	0.000	
@<TRIPOS>BOND
1 1 2 1
2 1 10 1
3 1 11 1
4 2 3 1
5 2 8 2
6 3 4 2
7 4 5 1
8 5 6 2
9 6 7 1
10 6 8 1
11 8 9 1
12 9 10 2
13 10 18 1
14 11 12 1
15 12 13 1
16 13 14 1
17 14 16 1
18 15 16 1
19 16 17 1
20 18 19 1
21 19 20 1
22 19 27 2
23 20 21 2
24 21 22 1
25 21 25 1
26 22 23 1
27 23 24 1
28 24 25 1
29 25 26 2
30 26 27 1
31 27 28 1
@<TRIPOS>SUBSTRUCTURE
1	UNK0	1	GROUP	1 ****	UNK
