# created with PyMOL 2.5.0
@<TRIPOS>MOLECULE
MOL
28 31 1                 
SMALL
USER_CHARGES
@<TRIPOS>ATOM
1	  N1	6.639	10.954	23.464	N.pl3	1	UNK0	0.000	
2	  C1	7.410	12.007	24.221	C.2	1	UNK0	0.000	
3	  N2	8.745	12.186	24.326	N.2	1	UNK0	0.000	
4	  C2	9.044	13.228	25.159	C.2	1	UNK0	0.000	
5	  N3	8.220	14.056	25.852	N.2	1	UNK0	0.000	
6	  C3	6.885	13.856	25.746	C.2	1	UNK0	0.000	
7	  N4	6.119	14.732	26.502	N.pl3	1	UNK0	0.000	
8	  C4	6.375	12.820	24.937	C.2	1	UNK0	0.000	
9	  N5	4.925	12.219	24.560	N.2	1	UNK0	0.000	
10	  C5	5.149	11.108	23.699	C.2	1	UNK0	0.000	
11	  C6	7.239	9.885	22.685	C.3	1	UNK0	0.000	
12	  C7	7.366	8.642	23.528	C.3	1	UNK0	0.000	
13	  C8	8.262	7.624	22.860	C.3	1	UNK0	0.000	
14	  N6	7.726	7.136	21.602	N.3	1	UNK0	0.000	
15	  C9	6.661	5.265	22.826	C.3	1	UNK0	0.000	
16	 C10	6.493	6.365	21.796	C.3	1	UNK0	0.000	
17	 C11	6.131	5.733	20.467	C.3	1	UNK0	0.000	
18	  S1	4.008	10.069	22.922	S.3	1	UNK0	0.000	
19	 C12	2.923	9.763	24.281	C.2	1	UNK0	0.000	
20	 C13	3.343	8.772	25.182	C.2	1	UNK0	0.000	
21	 C14	2.509	8.424	26.216	C.2	1	UNK0	0.000	
22	  O1	2.755	7.423	27.282	O.3	1	UNK0	0.000	
23	 C15	1.448	7.525	28.131	C.3	1	UNK0	0.000	
24	  O2	0.438	8.553	27.534	O.3	1	UNK0	0.000	
25	 C16	1.173	9.075	26.356	C.2	1	UNK0	0.000	
26	 C17	0.773	10.046	25.474	C.2	1	UNK0	0.000	
27	 C18	1.657	10.404	24.442	C.2	1	UNK0	0.000	
28	 Br1	1.077	11.804	23.273	Br	1	UNK0	0.000	
@<TRIPOS>BOND
1 1 2 1
2 1 10 1
3 1 11 1
4 2 3 1
5 2 8 2
6 3 4 2
7 4 5 1
8 5 6 2
9 6 7 1
10 6 8 1
11 8 9 1
12 9 10 2
13 10 18 1
14 11 12 1
15 12 13 1
16 13 14 1
17 14 16 1
18 15 16 1
19 16 17 1
20 18 19 1
21 19 20 1
22 19 27 2
23 20 21 2
24 21 22 1
25 21 25 1
26 22 23 1
27 23 24 1
28 24 25 1
29 25 26 2
30 26 27 1
31 27 28 1
@<TRIPOS>SUBSTRUCTURE
1	UNK0	1	GROUP	1 ****	UNK
