# created with PyMOL 2.5.0
@<TRIPOS>MOLECULE
MOL
28 31 1                 
SMALL
USER_CHARGES
@<TRIPOS>ATOM
1	  N1	5.221	11.408	23.480	N.pl3	1	UNK0	0.000	
2	  C1	6.069	12.320	24.320	C.2	1	UNK0	0.000	
3	  N2	7.356	12.166	24.724	N.2	1	UNK0	0.000	
4	  C2	7.756	13.201	25.519	C.2	1	UNK0	0.000	
5	  N3	7.091	14.348	25.856	N.2	1	UNK0	0.000	
6	  C3	5.815	14.492	25.443	C.2	1	UNK0	0.000	
7	  N4	5.230	15.699	25.792	N.pl3	1	UNK0	0.000	
8	  C4	5.194	13.489	24.671	C.2	1	UNK0	0.000	
9	  N5	3.754	13.231	23.985	N.2	1	UNK0	0.000	
10	  C5	3.819	11.975	23.319	C.2	1	UNK0	0.000	
11	  C6	5.675	10.179	22.876	C.3	1	UNK0	0.000	
12	  C7	5.574	9.059	23.894	C.3	1	UNK0	0.000	
13	  C8	5.987	7.731	23.299	C.3	1	UNK0	0.000	
14	  N6	5.192	7.355	22.136	N.3	1	UNK0	0.000	
15	  C9	3.437	6.530	23.657	C.3	1	UNK0	0.000	
16	 C10	3.751	7.377	22.449	C.3	1	UNK0	0.000	
17	 C11	2.987	6.841	21.258	C.3	1	UNK0	0.000	
18	  S1	2.606	11.183	22.366	S.3	1	UNK0	0.000	
19	 C12	1.372	10.932	23.628	C.2	1	UNK0	0.000	
20	 C13	1.510	9.758	24.394	C.2	1	UNK0	0.000	
21	 C14	0.517	9.453	25.304	C.2	1	UNK0	0.000	
22	  O1	0.451	8.281	26.204	O.3	1	UNK0	0.000	
23	 C15	-0.883	8.526	26.958	C.3	1	UNK0	0.000	
24	  O2	-1.591	9.836	26.502	O.3	1	UNK0	0.000	
25	 C16	-0.654	10.351	25.478	C.2	1	UNK0	0.000	
26	 C17	-0.773	11.506	24.743	C.2	1	UNK0	0.000	
27	 C18	0.250	11.791	23.813	C.2	1	UNK0	0.000	
28	 Br1	0.012	13.383	22.800	Br	1	UNK0	0.000	
@<TRIPOS>BOND
1 1 2 1
2 1 10 1
3 1 11 1
4 2 3 1
5 2 8 2
6 3 4 2
7 4 5 1
8 5 6 2
9 6 7 1
10 6 8 1
11 8 9 1
12 9 10 2
13 10 18 1
14 11 12 1
15 12 13 1
16 13 14 1
17 14 16 1
18 15 16 1
19 16 17 1
20 18 19 1
21 19 20 1
22 19 27 2
23 20 21 2
24 21 22 1
25 21 25 1
26 22 23 1
27 23 24 1
28 24 25 1
29 25 26 2
30 26 27 1
31 27 28 1
@<TRIPOS>SUBSTRUCTURE
1	UNK0	1	GROUP	1 ****	UNK
