# created with PyMOL 2.5.0
@<TRIPOS>MOLECULE
MOL
28 31 1                 
SMALL
USER_CHARGES
@<TRIPOS>ATOM
1	  N1	5.299	11.697	23.124	N.pl3	1	UNK0	0.000	
2	  C1	6.112	12.873	23.629	C.2	1	UNK0	0.000	
3	  N2	7.421	12.963	23.892	N.2	1	UNK0	0.000	
4	  C2	7.765	14.192	24.381	C.2	1	UNK0	0.000	
5	  N3	6.970	15.287	24.550	N.2	1	UNK0	0.000	
6	  C3	5.661	15.188	24.278	C.2	1	UNK0	0.000	
7	  N4	4.948	16.370	24.481	N.pl3	1	UNK0	0.000	
8	  C4	5.118	13.994	23.786	C.2	1	UNK0	0.000	
9	  N5	3.681	13.463	23.300	N.2	1	UNK0	0.000	
10	  C5	3.841	12.089	22.923	C.2	1	UNK0	0.000	
11	  C6	5.809	10.379	22.925	C.3	1	UNK0	0.000	
12	  C7	5.791	9.582	24.223	C.3	1	UNK0	0.000	
13	  C8	6.370	8.223	24.003	C.3	1	UNK0	0.000	
14	  N6	5.659	7.592	22.884	N.3	1	UNK0	0.000	
15	  C9	4.912	5.501	23.875	C.3	1	UNK0	0.000	
16	 C10	4.493	6.866	23.397	C.3	1	UNK0	0.000	
17	 C11	3.515	6.693	22.227	C.3	1	UNK0	0.000	
18	  S1	2.643	11.027	22.266	S.3	1	UNK0	0.000	
19	 C12	1.668	10.869	23.727	C.2	1	UNK0	0.000	
20	 C13	1.969	9.778	24.552	C.2	1	UNK0	0.000	
21	 C14	1.319	9.650	25.749	C.2	1	UNK0	0.000	
22	  O1	1.488	8.596	26.763	O.3	1	UNK0	0.000	
23	 C15	0.473	9.010	27.860	C.3	1	UNK0	0.000	
24	  O2	-0.299	10.321	27.475	O.3	1	UNK0	0.000	
25	 C16	0.288	10.644	26.162	C.2	1	UNK0	0.000	
26	 C17	-0.044	11.697	25.316	C.2	1	UNK0	0.000	
27	 C18	0.646	11.805	24.099	C.2	1	UNK0	0.000	
28	 Br1	0.108	13.222	22.940	Br	1	UNK0	0.000	
@<TRIPOS>BOND
1 1 2 1
2 1 10 1
3 1 11 1
4 2 3 1
5 2 8 2
6 3 4 2
7 4 5 1
8 5 6 2
9 6 7 1
10 6 8 1
11 8 9 1
12 9 10 2
13 10 18 1
14 11 12 1
15 12 13 1
16 13 14 1
17 14 16 1
18 15 16 1
19 16 17 1
20 18 19 1
21 19 20 1
22 19 27 2
23 20 21 2
24 21 22 1
25 21 25 1
26 22 23 1
27 23 24 1
28 24 25 1
29 25 26 2
30 26 27 1
31 27 28 1
@<TRIPOS>SUBSTRUCTURE
1	UNK0	1	GROUP	1 ****	UNK
