# created with PyMOL 2.5.0
@<TRIPOS>MOLECULE
MOL
28 31 1                 
SMALL
USER_CHARGES
@<TRIPOS>ATOM
1	  N1	5.974	11.282	23.150	N.pl3	1	UNK0	0.000	
2	  C1	6.556	12.558	23.713	C.2	1	UNK0	0.000	
3	  N2	7.831	12.983	23.698	N.2	1	UNK0	0.000	
4	  C2	7.955	14.204	24.287	C.2	1	UNK0	0.000	
5	  N3	7.002	14.993	24.869	N.2	1	UNK0	0.000	
6	  C3	5.728	14.548	24.884	C.2	1	UNK0	0.000	
7	  N4	4.834	15.448	25.455	N.pl3	1	UNK0	0.000	
8	  C4	5.395	13.305	24.298	C.2	1	UNK0	0.000	
9	  N5	4.062	12.429	24.044	N.2	1	UNK0	0.000	
10	  C5	4.467	11.234	23.368	C.2	1	UNK0	0.000	
11	  C6	6.759	10.241	22.530	C.3	1	UNK0	0.000	
12	  C7	7.521	9.469	23.590	C.3	1	UNK0	0.000	
13	  C8	8.119	8.197	23.022	C.3	1	UNK0	0.000	
14	  N6	7.123	7.275	22.474	N.3	1	UNK0	0.000	
15	  C9	6.449	6.416	24.662	C.3	1	UNK0	0.000	
16	 C10	5.996	7.062	23.378	C.3	1	UNK0	0.000	
17	 C11	5.008	6.140	22.690	C.3	1	UNK0	0.000	
18	  S1	3.483	10.003	22.640	S.3	1	UNK0	0.000	
19	 C12	2.230	9.828	23.885	C.2	1	UNK0	0.000	
20	 C13	2.583	9.041	25.001	C.2	1	UNK0	0.000	
21	 C14	1.597	8.749	25.933	C.2	1	UNK0	0.000	
22	  O1	1.722	7.890	27.131	O.3	1	UNK0	0.000	
23	 C15	0.279	7.893	27.689	C.3	1	UNK0	0.000	
24	  O2	-0.692	8.752	26.821	O.3	1	UNK0	0.000	
25	 C16	0.209	9.233	25.750	C.2	1	UNK0	0.000	
26	 C17	-0.123	10.020	24.654	C.2	1	UNK0	0.000	
27	 C18	0.892	10.302	23.732	C.2	1	UNK0	0.000	
28	 Br1	0.371	11.357	22.218	Br	1	UNK0	0.000	
@<TRIPOS>BOND
1 1 2 1
2 1 10 1
3 1 11 1
4 2 3 1
5 2 8 2
6 3 4 2
7 4 5 1
8 5 6 2
9 6 7 1
10 6 8 1
11 8 9 1
12 9 10 2
13 10 18 1
14 11 12 1
15 12 13 1
16 13 14 1
17 14 16 1
18 15 16 1
19 16 17 1
20 18 19 1
21 19 20 1
22 19 27 2
23 20 21 2
24 21 22 1
25 21 25 1
26 22 23 1
27 23 24 1
28 24 25 1
29 25 26 2
30 26 27 1
31 27 28 1
@<TRIPOS>SUBSTRUCTURE
1	UNK0	1	GROUP	1 ****	UNK
