# created with PyMOL 2.5.0
@<TRIPOS>MOLECULE
MOL
49 52 1                 
SMALL
USER_CHARGES
@<TRIPOS>ATOM
1	 H21	-1.540	11.380	24.710	 H	1	UNK0	0.000	
2	 H05	5.700	10.530	22.230	 H	1	UNK0	0.000	
3	 H07	7.930	11.000	24.270	 H	1	UNK0	0.000	
4	 H19	-0.180	9.310	28.900	 H	1	UNK0	0.000	
5	 H20	-0.580	7.870	27.930	 H	1	UNK0	0.000	
6	 H18	3.150	9.600	25.370	 H	1	UNK0	0.000	
7	 H04	7.080	11.640	22.120	 H	1	UNK0	0.000	
8	 H03	4.980	17.270	25.720	 H	1	UNK0	0.000	
9	 H10	6.380	8.490	21.840	 H	1	UNK0	0.000	
10	 H02	3.620	16.380	25.180	 H	1	UNK0	0.000	
11	 H08	8.260	8.590	24.110	 H	1	UNK0	0.000	
12	 H01	8.610	15.520	24.610	 H	1	UNK0	0.000	
13	 H09	8.440	9.350	22.550	 H	1	UNK0	0.000	
14	 H06	6.460	10.160	24.720	 H	1	UNK0	0.000	
15	 H13	6.710	7.970	25.490	 H	1	UNK0	0.000	
16	 H12	6.470	6.370	24.750	 H	1	UNK0	0.000	
17	 H11	5.130	7.170	25.580	 H	1	UNK0	0.000	
18	 H14	5.070	8.940	23.860	 H	1	UNK0	0.000	
19	 H17	3.700	6.920	23.580	 H	1	UNK0	0.000	
20	 H16	5.030	6.100	22.750	 H	1	UNK0	0.000	
21	 H15	4.260	7.510	22.000	 H	1	UNK0	0.000	
22	  N1	5.600	12.210	23.420	N.pl3	1	UNK0	0.000	
23	  C1	6.190	13.480	23.990	C.2	1	UNK0	0.000	
24	  N2	7.470	13.890	23.990	N.2	1	UNK0	0.000	
25	  C2	7.600	15.110	24.580	C.2	1	UNK0	0.000	
26	  N3	6.650	15.910	25.150	N.2	1	UNK0	0.000	
27	  C3	5.370	15.480	25.150	C.2	1	UNK0	0.000	
28	  N4	4.480	16.390	25.710	N.pl3	1	UNK0	0.000	
29	  C4	5.030	14.240	24.560	C.2	1	UNK0	0.000	
30	  N5	3.690	13.380	24.290	N.2	1	UNK0	0.000	
31	  C5	4.090	12.180	23.620	C.2	1	UNK0	0.000	
32	  C6	6.380	11.160	22.810	C.3	1	UNK0	0.000	
33	  C7	7.120	10.380	23.880	C.3	1	UNK0	0.000	
34	  C8	7.710	9.100	23.320	C.3	1	UNK0	0.000	
35	  N6	6.710	8.190	22.760	N.3	1	UNK0	0.000	
36	  C9	6.000	7.340	24.940	C.3	1	UNK0	0.000	
37	 C10	5.570	7.990	23.650	C.3	1	UNK0	0.000	
38	 C11	4.580	7.080	22.950	C.3	1	UNK0	0.000	
39	  S1	3.100	10.960	22.880	S.3	1	UNK0	0.000	
40	 C12	1.830	10.800	24.110	C.2	1	UNK0	0.000	
41	 C13	2.160	10.010	25.230	C.2	1	UNK0	0.000	
42	 C14	1.160	9.730	26.150	C.2	1	UNK0	0.000	
43	  O1	1.260	8.870	27.350	O.3	1	UNK0	0.000	
44	 C15	-0.190	8.890	27.890	C.3	1	UNK0	0.000	
45	  O2	-1.140	9.760	27.010	O.3	1	UNK0	0.000	
46	 C16	-0.220	10.230	25.950	C.2	1	UNK0	0.000	
47	 C17	-0.530	11.020	24.850	C.2	1	UNK0	0.000	
48	 C18	0.500	11.290	23.940	C.2	1	UNK0	0.000	
49	 Br1	0.010	12.350	22.420	Br	1	UNK0	0.000	
@<TRIPOS>BOND
1 22 23 1
2 22 31 1
3 22 32 1
4 23 24 1
5 23 29 2
6 24 25 2
7 12 25 1
8 25 26 1
9 26 27 2
10 27 28 1
11 27 29 1
12 8 28 1
13 10 28 1
14 29 30 1
15 30 31 2
16 31 39 1
17 2 32 1
18 7 32 1
19 32 33 1
20 3 33 1
21 14 33 1
22 33 34 1
23 11 34 1
24 13 34 1
25 34 35 1
26 9 35 1
27 35 37 1
28 15 36 1
29 16 36 1
30 17 36 1
31 36 37 1
32 18 37 1
33 37 38 1
34 19 38 1
35 20 38 1
36 21 38 1
37 39 40 1
38 40 41 1
39 40 48 2
40 6 41 1
41 41 42 2
42 42 43 1
43 42 46 1
44 43 44 1
45 4 44 1
46 5 44 1
47 44 45 1
48 45 46 1
49 46 47 2
50 1 47 1
51 47 48 1
52 48 49 1
@<TRIPOS>SUBSTRUCTURE
1	UNK0	1	GROUP	1 ****	UNK
