# created with PyMOL 2.5.0
@<TRIPOS>MOLECULE
MOL
28 31 1                 
SMALL
USER_CHARGES
@<TRIPOS>ATOM
1	  N1	5.760	11.862	23.994	N.pl3	1	UNK0	0.000	
2	  C1	6.256	12.902	24.955	C.2	1	UNK0	0.000	
3	  N2	7.532	13.164	25.351	N.2	1	UNK0	0.000	
4	  C2	7.566	14.229	26.208	C.2	1	UNK0	0.000	
5	  N3	6.554	14.991	26.686	N.2	1	UNK0	0.000	
6	  C3	5.298	14.721	26.289	C.2	1	UNK0	0.000	
7	  N4	4.336	15.524	26.857	N.pl3	1	UNK0	0.000	
8	  C4	5.044	13.648	25.405	C.2	1	UNK0	0.000	
9	  N5	3.759	12.968	24.706	N.2	1	UNK0	0.000	
10	  C5	4.246	11.900	23.893	C.2	1	UNK0	0.000	
11	  C6	6.609	11.036	23.168	C.3	1	UNK0	0.000	
12	  C7	7.198	9.910	23.963	C.3	1	UNK0	0.000	
13	  C8	7.744	8.845	23.039	C.3	1	UNK0	0.000	
14	  N6	6.675	8.244	22.238	N.3	1	UNK0	0.000	
15	  C9	6.644	6.023	23.303	C.3	1	UNK0	0.000	
16	 C10	5.886	7.320	23.061	C.3	1	UNK0	0.000	
17	 C11	4.587	7.010	22.335	C.3	1	UNK0	0.000	
18	  S1	3.345	10.735	22.986	S.3	1	UNK0	0.000	
19	 C12	2.195	10.295	24.277	C.2	1	UNK0	0.000	
20	 C13	2.678	9.394	25.245	C.2	1	UNK0	0.000	
21	 C14	1.833	9.037	26.283	C.2	1	UNK0	0.000	
22	  O1	2.138	8.149	27.433	O.3	1	UNK0	0.000	
23	 C15	0.805	8.197	28.230	C.3	1	UNK0	0.000	
24	  O2	-0.265	9.096	27.560	O.3	1	UNK0	0.000	
25	 C16	0.454	9.580	26.354	C.2	1	UNK0	0.000	
26	 C17	-0.018	10.451	25.386	C.2	1	UNK0	0.000	
27	 C18	0.867	10.809	24.357	C.2	1	UNK0	0.000	
28	 Br1	0.198	12.046	23.063	Br	1	UNK0	0.000	
@<TRIPOS>BOND
1 1 2 1
2 1 10 1
3 1 11 1
4 2 3 1
5 2 8 2
6 3 4 2
7 4 5 1
8 5 6 2
9 6 7 1
10 6 8 1
11 8 9 1
12 9 10 2
13 10 18 1
14 11 12 1
15 12 13 1
16 13 14 1
17 14 16 1
18 15 16 1
19 16 17 1
20 18 19 1
21 19 20 1
22 19 27 2
23 20 21 2
24 21 22 1
25 21 25 1
26 22 23 1
27 23 24 1
28 24 25 1
29 25 26 2
30 26 27 1
31 27 28 1
@<TRIPOS>SUBSTRUCTURE
1	UNK0	1	GROUP	1 ****	UNK
