# created with PyMOL 2.5.0
@<TRIPOS>MOLECULE
MOL
49 52 1                 
SMALL
USER_CHARGES
@<TRIPOS>ATOM
1	 H21	-0.730	11.520	25.170	 H	1	UNK0	0.000	
2	 H05	6.350	11.010	22.070	 H	1	UNK0	0.000	
3	 H07	8.530	11.210	24.150	 H	1	UNK0	0.000	
4	 H19	0.100	8.130	28.830	 H	1	UNK0	0.000	
5	 H20	-0.130	7.630	27.140	 H	1	UNK0	0.000	
6	 H18	3.680	9.010	25.400	 H	1	UNK0	0.000	
7	 H04	7.590	12.250	22.300	 H	1	UNK0	0.000	
8	 H03	4.250	16.880	26.420	 H	1	UNK0	0.000	
9	 H10	6.090	9.210	22.360	 H	1	UNK0	0.000	
10	 H02	3.190	15.620	25.890	 H	1	UNK0	0.000	
11	 H08	8.610	8.800	23.870	 H	1	UNK0	0.000	
12	 H01	8.290	16.000	25.220	 H	1	UNK0	0.000	
13	 H09	8.580	9.560	22.280	 H	1	UNK0	0.000	
14	 H06	6.990	10.520	24.670	 H	1	UNK0	0.000	
15	 H13	7.610	6.320	23.890	 H	1	UNK0	0.000	
16	 H12	6.660	6.400	25.380	 H	1	UNK0	0.000	
17	 H11	7.980	7.550	25.110	 H	1	UNK0	0.000	
18	 H14	5.820	8.680	24.650	 H	1	UNK0	0.000	
19	 H17	4.520	6.620	24.260	 H	1	UNK0	0.000	
20	 H16	5.350	6.370	22.720	 H	1	UNK0	0.000	
21	 H15	4.280	7.770	22.940	 H	1	UNK0	0.000	
22	  N1	5.950	12.400	23.530	N.pl3	1	UNK0	0.000	
23	  C1	6.290	13.660	24.270	C.2	1	UNK0	0.000	
24	  N2	7.460	14.300	24.360	N.2	1	UNK0	0.000	
25	  C2	7.370	15.440	25.110	C.2	1	UNK0	0.000	
26	  N3	6.290	15.970	25.730	N.2	1	UNK0	0.000	
27	  C3	5.120	15.310	25.660	C.2	1	UNK0	0.000	
28	  N4	4.060	15.880	26.330	N.pl3	1	UNK0	0.000	
29	  C4	5.040	14.120	24.920	C.2	1	UNK0	0.000	
30	  N5	3.940	13.050	24.610	N.2	1	UNK0	0.000	
31	  C5	4.490	12.100	23.710	C.2	1	UNK0	0.000	
32	  C6	6.900	11.580	22.820	C.3	1	UNK0	0.000	
33	  C7	7.630	10.700	23.800	C.3	1	UNK0	0.000	
34	  C8	7.990	9.380	23.180	C.3	1	UNK0	0.000	
35	  N6	6.800	8.630	22.810	N.3	1	UNK0	0.000	
36	  C9	7.170	7.000	24.620	C.3	1	UNK0	0.000	
37	 C10	6.190	7.940	23.940	C.3	1	UNK0	0.000	
38	 C11	5.020	7.130	23.430	C.3	1	UNK0	0.000	
39	  S1	3.760	10.650	23.090	S.3	1	UNK0	0.000	
40	 C12	2.470	10.470	24.290	C.2	1	UNK0	0.000	
41	 C13	2.750	9.580	25.350	C.2	1	UNK0	0.000	
42	 C14	1.800	9.420	26.330	C.2	1	UNK0	0.000	
43	  O1	1.800	8.480	27.490	O.3	1	UNK0	0.000	
44	 C15	0.300	8.400	27.800	C.3	1	UNK0	0.000	
45	  O2	-0.350	9.750	27.400	O.3	1	UNK0	0.000	
46	 C16	0.520	10.150	26.260	C.2	1	UNK0	0.000	
47	 C17	0.230	11.020	25.230	C.2	1	UNK0	0.000	
48	 C18	1.220	11.170	24.240	C.2	1	UNK0	0.000	
49	 Br1	0.800	12.400	22.840	Br	1	UNK0	0.000	
@<TRIPOS>BOND
1 22 23 1
2 22 31 1
3 22 32 1
4 23 24 1
5 23 29 2
6 24 25 2
7 12 25 1
8 25 26 1
9 26 27 2
10 27 28 1
11 27 29 1
12 8 28 1
13 10 28 1
14 29 30 1
15 30 31 2
16 31 39 1
17 2 32 1
18 7 32 1
19 32 33 1
20 3 33 1
21 14 33 1
22 33 34 1
23 11 34 1
24 13 34 1
25 34 35 1
26 9 35 1
27 35 37 1
28 15 36 1
29 16 36 1
30 17 36 1
31 36 37 1
32 18 37 1
33 37 38 1
34 19 38 1
35 20 38 1
36 21 38 1
37 39 40 1
38 40 41 1
39 40 48 2
40 6 41 1
41 41 42 2
42 42 43 1
43 42 46 1
44 43 44 1
45 4 44 1
46 5 44 1
47 44 45 1
48 45 46 1
49 46 47 2
50 1 47 1
51 47 48 1
52 48 49 1
@<TRIPOS>SUBSTRUCTURE
1	UNK0	1	GROUP	1 ****	UNK
