# created with PyMOL 2.5.0
@<TRIPOS>MOLECULE
MOL
49 52 1                 
SMALL
USER_CHARGES
@<TRIPOS>ATOM
1	 H21	-0.990	12.770	25.830	 H	1	UNK0	0.000	
2	 H05	5.630	10.670	22.700	 H	1	UNK0	0.000	
3	 H07	6.890	9.970	25.390	 H	1	UNK0	0.000	
4	 H19	0.100	9.190	28.910	 H	1	UNK0	0.000	
5	 H20	-0.820	8.290	27.690	 H	1	UNK0	0.000	
6	 H18	2.980	9.730	25.060	 H	1	UNK0	0.000	
7	 H04	7.290	11.020	23.240	 H	1	UNK0	0.000	
8	 H03	6.620	17.030	26.710	 H	1	UNK0	0.000	
9	 H10	6.000	7.080	22.560	 H	1	UNK0	0.000	
10	 H02	5.150	16.610	25.890	 H	1	UNK0	0.000	
11	 H08	6.560	7.620	24.720	 H	1	UNK0	0.000	
12	 H01	9.440	13.790	26.530	 H	1	UNK0	0.000	
13	 H09	7.630	8.470	23.620	 H	1	UNK0	0.000	
14	 H06	5.200	9.680	25.020	 H	1	UNK0	0.000	
15	 H13	4.430	6.170	24.230	 H	1	UNK0	0.000	
16	 H12	2.990	7.130	24.570	 H	1	UNK0	0.000	
17	 H11	4.540	7.590	25.290	 H	1	UNK0	0.000	
18	 H14	4.020	9.080	23.370	 H	1	UNK0	0.000	
19	 H17	2.480	7.470	22.270	 H	1	UNK0	0.000	
20	 H16	3.870	6.510	21.740	 H	1	UNK0	0.000	
21	 H15	3.650	8.160	21.140	 H	1	UNK0	0.000	
22	  N1	5.820	12.080	24.200	N.pl3	1	UNK0	0.000	
23	  C1	6.690	12.990	25.020	C.2	1	UNK0	0.000	
24	  N2	7.990	12.840	25.380	N.2	1	UNK0	0.000	
25	  C2	8.410	13.870	26.170	C.2	1	UNK0	0.000	
26	  N3	7.750	15.010	26.540	N.2	1	UNK0	0.000	
27	  C3	6.460	15.150	26.170	C.2	1	UNK0	0.000	
28	  N4	5.880	16.350	26.550	N.pl3	1	UNK0	0.000	
29	  C4	5.820	14.150	25.410	C.2	1	UNK0	0.000	
30	  N5	4.360	13.890	24.770	N.2	1	UNK0	0.000	
31	  C5	4.410	12.640	24.090	C.2	1	UNK0	0.000	
32	  C6	6.260	10.860	23.570	C.3	1	UNK0	0.000	
33	  C7	6.200	9.730	24.580	C.3	1	UNK0	0.000	
34	  C8	6.600	8.410	23.960	C.3	1	UNK0	0.000	
35	  N6	5.770	8.040	22.820	N.3	1	UNK0	0.000	
36	  C9	4.070	7.190	24.390	C.3	1	UNK0	0.000	
37	 C10	4.340	8.050	23.180	C.3	1	UNK0	0.000	
38	 C11	3.540	7.520	22.010	C.3	1	UNK0	0.000	
39	  S1	3.170	11.850	23.170	S.3	1	UNK0	0.000	
40	 C12	1.980	11.580	24.470	C.2	1	UNK0	0.000	
41	 C13	2.150	10.400	25.220	C.2	1	UNK0	0.000	
42	 C14	1.190	10.080	26.160	C.2	1	UNK0	0.000	
43	  O1	1.160	8.900	27.050	O.3	1	UNK0	0.000	
44	 C15	-0.150	9.130	27.850	C.3	1	UNK0	0.000	
45	  O2	-0.880	10.440	27.430	O.3	1	UNK0	0.000	
46	 C16	0.020	10.970	26.380	C.2	1	UNK0	0.000	
47	 C17	-0.130	12.130	25.660	C.2	1	UNK0	0.000	
48	 C18	0.860	12.430	24.700	C.2	1	UNK0	0.000	
49	 Br1	0.580	14.030	23.710	Br	1	UNK0	0.000	
@<TRIPOS>BOND
1 22 23 1
2 22 31 1
3 22 32 1
4 23 24 1
5 23 29 2
6 24 25 2
7 12 25 1
8 25 26 1
9 26 27 2
10 27 28 1
11 27 29 1
12 8 28 1
13 10 28 1
14 29 30 1
15 30 31 2
16 31 39 1
17 2 32 1
18 7 32 1
19 32 33 1
20 3 33 1
21 14 33 1
22 33 34 1
23 11 34 1
24 13 34 1
25 34 35 1
26 9 35 1
27 35 37 1
28 15 36 1
29 16 36 1
30 17 36 1
31 36 37 1
32 18 37 1
33 37 38 1
34 19 38 1
35 20 38 1
36 21 38 1
37 39 40 1
38 40 41 1
39 40 48 2
40 6 41 1
41 41 42 2
42 42 43 1
43 42 46 1
44 43 44 1
45 4 44 1
46 5 44 1
47 44 45 1
48 45 46 1
49 46 47 2
50 1 47 1
51 47 48 1
52 48 49 1
@<TRIPOS>SUBSTRUCTURE
1	UNK0	1	GROUP	1 ****	UNK
