# created with PyMOL 2.5.0
@<TRIPOS>MOLECULE
MOL
49 52 1                 
SMALL
USER_CHARGES
@<TRIPOS>ATOM
1	 H21	-1.670	10.730	26.290	 H	1	UNK0	0.000	
2	 H05	5.080	11.540	22.770	 H	1	UNK0	0.000	
3	 H07	7.360	11.760	24.810	 H	1	UNK0	0.000	
4	 H19	0.420	8.070	29.780	 H	1	UNK0	0.000	
5	 H20	-0.220	6.760	28.740	 H	1	UNK0	0.000	
6	 H18	3.000	8.920	25.780	 H	1	UNK0	0.000	
7	 H04	6.240	12.850	22.980	 H	1	UNK0	0.000	
8	 H03	3.220	16.630	28.110	 H	1	UNK0	0.000	
9	 H10	6.690	8.890	21.870	 H	1	UNK0	0.000	
10	 H02	2.140	15.410	27.550	 H	1	UNK0	0.000	
11	 H08	7.950	9.510	23.900	 H	1	UNK0	0.000	
12	 H01	7.110	16.230	26.300	 H	1	UNK0	0.000	
13	 H09	7.890	10.720	22.630	 H	1	UNK0	0.000	
14	 H06	6.040	10.640	25.070	 H	1	UNK0	0.000	
15	 H13	7.100	7.930	24.870	 H	1	UNK0	0.000	
16	 H12	7.040	6.990	23.380	 H	1	UNK0	0.000	
17	 H11	5.830	6.730	24.640	 H	1	UNK0	0.000	
18	 H14	4.990	9.070	24.270	 H	1	UNK0	0.000	
19	 H17	3.880	7.150	23.250	 H	1	UNK0	0.000	
20	 H16	5.000	7.190	21.880	 H	1	UNK0	0.000	
21	 H15	3.860	8.530	22.120	 H	1	UNK0	0.000	
22	  N1	4.760	12.720	24.410	N.pl3	1	UNK0	0.000	
23	  C1	5.130	13.910	25.260	C.2	1	UNK0	0.000	
24	  N2	6.290	14.600	25.300	N.2	1	UNK0	0.000	
25	  C2	6.220	15.620	26.220	C.2	1	UNK0	0.000	
26	  N3	5.190	15.980	27.030	N.2	1	UNK0	0.000	
27	  C3	4.050	15.260	27.010	C.2	1	UNK0	0.000	
28	  N4	3.070	15.650	27.880	N.pl3	1	UNK0	0.000	
29	  C4	3.910	14.180	26.090	C.2	1	UNK0	0.000	
30	  N5	2.780	13.110	25.680	N.2	1	UNK0	0.000	
31	  C5	3.340	12.260	24.690	C.2	1	UNK0	0.000	
32	  C6	5.690	12.060	23.500	C.3	1	UNK0	0.000	
33	  C7	6.600	11.160	24.290	C.3	1	UNK0	0.000	
34	  C8	7.280	10.170	23.350	C.3	1	UNK0	0.000	
35	  N6	6.260	9.440	22.630	N.3	1	UNK0	0.000	
36	  C9	6.440	7.480	24.140	C.3	1	UNK0	0.000	
37	 C10	5.510	8.520	23.500	C.3	1	UNK0	0.000	
38	 C11	4.510	7.810	22.640	C.3	1	UNK0	0.000	
39	  S1	2.660	10.900	23.810	S.3	1	UNK0	0.000	
40	 C12	1.520	10.330	25.040	C.2	1	UNK0	0.000	
41	 C13	2.010	9.290	25.880	C.2	1	UNK0	0.000	
42	 C14	1.160	8.820	26.860	C.2	1	UNK0	0.000	
43	  O1	1.490	7.800	27.910	O.3	1	UNK0	0.000	
44	 C15	0.190	7.780	28.740	C.3	1	UNK0	0.000	
45	  O2	-0.900	8.740	28.200	O.3	1	UNK0	0.000	
46	 C16	-0.200	9.350	27.030	C.2	1	UNK0	0.000	
47	 C17	-0.680	10.340	26.180	C.2	1	UNK0	0.000	
48	 C18	0.190	10.800	25.180	C.2	1	UNK0	0.000	
49	 Br1	-0.530	12.140	24.010	Br	1	UNK0	0.000	
@<TRIPOS>BOND
1 22 23 1
2 22 31 1
3 22 32 1
4 23 24 1
5 23 29 2
6 24 25 2
7 12 25 1
8 25 26 1
9 26 27 2
10 27 28 1
11 27 29 1
12 8 28 1
13 10 28 1
14 29 30 1
15 30 31 2
16 31 39 1
17 2 32 1
18 7 32 1
19 32 33 1
20 3 33 1
21 14 33 1
22 33 34 1
23 11 34 1
24 13 34 1
25 34 35 1
26 9 35 1
27 35 37 1
28 15 36 1
29 16 36 1
30 17 36 1
31 36 37 1
32 18 37 1
33 37 38 1
34 19 38 1
35 20 38 1
36 21 38 1
37 39 40 1
38 40 41 1
39 40 48 2
40 6 41 1
41 41 42 2
42 42 43 1
43 42 46 1
44 43 44 1
45 4 44 1
46 5 44 1
47 44 45 1
48 45 46 1
49 46 47 2
50 1 47 1
51 47 48 1
52 48 49 1
@<TRIPOS>SUBSTRUCTURE
1	UNK0	1	GROUP	1 ****	UNK
