# created with PyMOL 2.5.0
@<TRIPOS>MOLECULE
MOL
49 52 1                 
SMALL
USER_CHARGES
@<TRIPOS>ATOM
1	 H21	0.490	13.660	27.260	 H	1	UNK0	0.000	
2	 H05	6.020	12.980	22.390	 H	1	UNK0	0.000	
3	 H07	8.310	11.220	23.400	 H	1	UNK0	0.000	
4	 H19	0.950	9.770	30.110	 H	1	UNK0	0.000	
5	 H20	-0.250	9.150	28.960	 H	1	UNK0	0.000	
6	 H18	3.550	9.840	26.010	 H	1	UNK0	0.000	
7	 H04	7.730	13.470	22.560	 H	1	UNK0	0.000	
8	 H03	8.320	14.530	29.490	 H	1	UNK0	0.000	
9	 H10	5.900	11.900	20.690	 H	1	UNK0	0.000	
10	 H02	6.790	13.830	29.200	 H	1	UNK0	0.000	
11	 H08	8.000	9.940	21.370	 H	1	UNK0	0.000	
12	 H01	10.680	14.820	26.040	 H	1	UNK0	0.000	
13	 H09	8.280	11.610	20.940	 H	1	UNK0	0.000	
14	 H06	6.630	10.720	23.340	 H	1	UNK0	0.000	
15	 H13	6.440	8.300	20.550	 H	1	UNK0	0.000	
16	 H12	5.100	7.940	21.640	 H	1	UNK0	0.000	
17	 H11	6.590	8.650	22.270	 H	1	UNK0	0.000	
18	 H14	4.940	10.410	22.140	 H	1	UNK0	0.000	
19	 H17	3.430	9.220	20.560	 H	1	UNK0	0.000	
20	 H16	4.500	9.670	19.220	 H	1	UNK0	0.000	
21	 H15	3.650	10.920	20.140	 H	1	UNK0	0.000	
22	  N1	6.720	13.140	24.300	N.pl3	1	UNK0	0.000	
23	  C1	7.730	13.750	25.250	C.2	1	UNK0	0.000	
24	  N2	9.020	14.070	25.010	N.2	1	UNK0	0.000	
25	  C2	9.620	14.550	26.140	C.2	1	UNK0	0.000	
26	  N3	9.110	14.750	27.380	N.2	1	UNK0	0.000	
27	  C3	7.820	14.380	27.610	C.2	1	UNK0	0.000	
28	  N4	7.470	14.550	28.930	N.pl3	1	UNK0	0.000	
29	  C4	7.040	13.860	26.570	C.2	1	UNK0	0.000	
30	  N5	5.540	13.270	26.390	N.2	1	UNK0	0.000	
31	  C5	5.400	12.870	25.010	C.2	1	UNK0	0.000	
32	  C6	6.940	12.810	22.950	C.3	1	UNK0	0.000	
33	  C7	7.370	11.350	22.840	C.3	1	UNK0	0.000	
34	  C8	7.570	10.940	21.420	C.3	1	UNK0	0.000	
35	  N6	6.290	10.970	20.650	N.3	1	UNK0	0.000	
36	  C9	5.900	8.650	21.420	C.3	1	UNK0	0.000	
37	 C10	5.340	10.050	21.190	C.3	1	UNK0	0.000	
38	 C11	4.150	9.950	20.220	C.3	1	UNK0	0.000	
39	  S1	4.120	12.000	24.250	S.3	1	UNK0	0.000	
40	 C12	2.950	11.890	25.580	C.2	1	UNK0	0.000	
41	 C13	2.900	10.660	26.260	C.2	1	UNK0	0.000	
42	 C14	1.970	10.520	27.280	C.2	1	UNK0	0.000	
43	  O1	1.750	9.330	28.140	O.3	1	UNK0	0.000	
44	 C15	0.600	9.820	29.070	C.3	1	UNK0	0.000	
45	  O2	0.150	11.270	28.750	O.3	1	UNK0	0.000	
46	 C16	1.060	11.630	27.630	C.2	1	UNK0	0.000	
47	 C17	1.130	12.840	26.960	C.2	1	UNK0	0.000	
48	 C18	2.060	12.950	25.920	C.2	1	UNK0	0.000	
49	 Br1	2.060	14.610	24.970	Br	1	UNK0	0.000	
@<TRIPOS>BOND
1 22 23 1
2 22 31 1
3 22 32 1
4 23 24 1
5 23 29 2
6 24 25 2
7 12 25 1
8 25 26 1
9 26 27 2
10 27 28 1
11 27 29 1
12 8 28 1
13 10 28 1
14 29 30 1
15 30 31 2
16 31 39 1
17 2 32 1
18 7 32 1
19 32 33 1
20 3 33 1
21 14 33 1
22 33 34 1
23 11 34 1
24 13 34 1
25 34 35 1
26 9 35 1
27 35 37 1
28 15 36 1
29 16 36 1
30 17 36 1
31 36 37 1
32 18 37 1
33 37 38 1
34 19 38 1
35 20 38 1
36 21 38 1
37 39 40 1
38 40 41 1
39 40 48 2
40 6 41 1
41 41 42 2
42 42 43 1
43 42 46 1
44 43 44 1
45 4 44 1
46 5 44 1
47 44 45 1
48 45 46 1
49 46 47 2
50 1 47 1
51 47 48 1
52 48 49 1
@<TRIPOS>SUBSTRUCTURE
1	UNK0	1	GROUP	1 ****	UNK
