# created with PyMOL 2.5.0
@<TRIPOS>MOLECULE
MOL
49 52 1                 
SMALL
USER_CHARGES
@<TRIPOS>ATOM
1	 H21	-1.540	11.750	25.750	 H	1	UNK0	0.000	
2	 H05	5.520	11.320	22.730	 H	1	UNK0	0.000	
3	 H07	7.500	10.890	24.990	 H	1	UNK0	0.000	
4	 H19	0.370	9.430	29.590	 H	1	UNK0	0.000	
5	 H20	-0.260	8.060	28.660	 H	1	UNK0	0.000	
6	 H18	3.110	9.740	25.600	 H	1	UNK0	0.000	
7	 H04	6.940	12.270	23.170	 H	1	UNK0	0.000	
8	 H03	4.410	16.590	28.050	 H	1	UNK0	0.000	
9	 H10	5.500	9.590	22.300	 H	1	UNK0	0.000	
10	 H02	3.110	15.720	27.360	 H	1	UNK0	0.000	
11	 H08	7.700	8.660	24.050	 H	1	UNK0	0.000	
12	 H01	8.160	15.080	26.970	 H	1	UNK0	0.000	
13	 H09	7.930	9.870	22.800	 H	1	UNK0	0.000	
14	 H06	5.910	10.150	25.070	 H	1	UNK0	0.000	
15	 H13	6.280	6.170	22.810	 H	1	UNK0	0.000	
16	 H12	5.330	5.970	24.280	 H	1	UNK0	0.000	
17	 H11	6.890	6.800	24.340	 H	1	UNK0	0.000	
18	 H14	5.030	8.440	24.430	 H	1	UNK0	0.000	
19	 H17	3.330	7.060	23.340	 H	1	UNK0	0.000	
20	 H16	4.160	7.200	21.790	 H	1	UNK0	0.000	
21	 H15	3.450	8.630	22.540	 H	1	UNK0	0.000	
22	  N1	5.300	12.520	24.380	N.pl3	1	UNK0	0.000	
23	  C1	5.820	13.550	25.340	C.2	1	UNK0	0.000	
24	  N2	7.100	13.770	25.750	N.2	1	UNK0	0.000	
25	  C2	7.160	14.840	26.600	C.2	1	UNK0	0.000	
26	  N3	6.170	15.640	27.060	N.2	1	UNK0	0.000	
27	  C3	4.910	15.410	26.650	C.2	1	UNK0	0.000	
28	  N4	3.970	16.250	27.200	N.pl3	1	UNK0	0.000	
29	  C4	4.630	14.340	25.770	C.2	1	UNK0	0.000	
30	  N5	3.330	13.700	25.060	N.2	1	UNK0	0.000	
31	  C5	3.790	12.610	24.260	C.2	1	UNK0	0.000	
32	  C6	6.130	11.660	23.570	C.3	1	UNK0	0.000	
33	  C7	6.670	10.520	24.380	C.3	1	UNK0	0.000	
34	  C8	7.190	9.430	23.470	C.3	1	UNK0	0.000	
35	  N6	6.110	8.860	22.660	N.3	1	UNK0	0.000	
36	  C9	5.990	6.650	23.740	C.3	1	UNK0	0.000	
37	 C10	5.280	7.970	23.480	C.3	1	UNK0	0.000	
38	 C11	3.980	7.700	22.740	C.3	1	UNK0	0.000	
39	  S1	2.860	11.470	23.350	S.3	1	UNK0	0.000	
40	 C12	1.680	11.080	24.630	C.2	1	UNK0	0.000	
41	 C13	2.120	10.170	25.610	C.2	1	UNK0	0.000	
42	 C14	1.250	9.850	26.640	C.2	1	UNK0	0.000	
43	  O1	1.510	8.960	27.800	O.3	1	UNK0	0.000	
44	 C15	0.170	9.060	28.580	C.3	1	UNK0	0.000	
45	  O2	-0.860	9.990	27.890	O.3	1	UNK0	0.000	
46	 C16	-0.110	10.440	26.690	C.2	1	UNK0	0.000	
47	 C17	-0.540	11.320	25.710	C.2	1	UNK0	0.000	
48	 C18	0.370	11.640	24.690	C.2	1	UNK0	0.000	
49	 Br1	-0.240	12.890	23.380	Br	1	UNK0	0.000	
@<TRIPOS>BOND
1 22 23 1
2 22 31 1
3 22 32 1
4 23 24 1
5 23 29 2
6 24 25 2
7 12 25 1
8 25 26 1
9 26 27 2
10 27 28 1
11 27 29 1
12 8 28 1
13 10 28 1
14 29 30 1
15 30 31 2
16 31 39 1
17 2 32 1
18 7 32 1
19 32 33 1
20 3 33 1
21 14 33 1
22 33 34 1
23 11 34 1
24 13 34 1
25 34 35 1
26 9 35 1
27 35 37 1
28 15 36 1
29 16 36 1
30 17 36 1
31 36 37 1
32 18 37 1
33 37 38 1
34 19 38 1
35 20 38 1
36 21 38 1
37 39 40 1
38 40 41 1
39 40 48 2
40 6 41 1
41 41 42 2
42 42 43 1
43 42 46 1
44 43 44 1
45 4 44 1
46 5 44 1
47 44 45 1
48 45 46 1
49 46 47 2
50 1 47 1
51 47 48 1
52 48 49 1
@<TRIPOS>SUBSTRUCTURE
1	UNK0	1	GROUP	1 ****	UNK
