# created with PyMOL 2.5.0
@<TRIPOS>MOLECULE
MOL
49 52 1                 
SMALL
USER_CHARGES
@<TRIPOS>ATOM
1	 H21	-0.230	13.200	26.370	 H	1	UNK0	0.000	
2	 H05	5.790	10.760	22.910	 H	1	UNK0	0.000	
3	 H07	7.000	11.070	25.710	 H	1	UNK0	0.000	
4	 H19	1.730	10.130	29.610	 H	1	UNK0	0.000	
5	 H20	0.480	9.100	28.880	 H	1	UNK0	0.000	
6	 H18	3.370	9.900	25.060	 H	1	UNK0	0.000	
7	 H04	7.430	11.390	23.260	 H	1	UNK0	0.000	
8	 H03	6.070	18.060	25.020	 H	1	UNK0	0.000	
9	 H10	6.980	7.800	23.250	 H	1	UNK0	0.000	
10	 H02	4.650	17.320	24.400	 H	1	UNK0	0.000	
11	 H08	7.030	8.570	25.690	 H	1	UNK0	0.000	
12	 H01	9.320	15.340	25.230	 H	1	UNK0	0.000	
13	 H09	8.080	9.280	24.470	 H	1	UNK0	0.000	
14	 H06	5.410	10.430	25.360	 H	1	UNK0	0.000	
15	 H13	6.140	5.810	23.970	 H	1	UNK0	0.000	
16	 H12	4.800	5.820	25.120	 H	1	UNK0	0.000	
17	 H11	6.370	6.530	25.580	 H	1	UNK0	0.000	
18	 H14	4.700	8.310	25.020	 H	1	UNK0	0.000	
19	 H17	3.340	6.950	23.460	 H	1	UNK0	0.000	
20	 H16	4.660	6.930	22.290	 H	1	UNK0	0.000	
21	 H15	3.850	8.460	22.680	 H	1	UNK0	0.000	
22	  N1	5.870	12.580	23.820	N.pl3	1	UNK0	0.000	
23	  C1	6.660	13.790	24.280	C.2	1	UNK0	0.000	
24	  N2	7.970	13.920	24.520	N.2	1	UNK0	0.000	
25	  C2	8.290	15.170	24.970	C.2	1	UNK0	0.000	
26	  N3	7.470	16.250	25.120	N.2	1	UNK0	0.000	
27	  C3	6.160	16.110	24.870	C.2	1	UNK0	0.000	
28	  N4	5.420	17.280	25.050	N.pl3	1	UNK0	0.000	
29	  C4	5.640	14.890	24.420	C.2	1	UNK0	0.000	
30	  N5	4.210	14.310	23.970	N.2	1	UNK0	0.000	
31	  C5	4.400	12.930	23.630	C.2	1	UNK0	0.000	
32	  C6	6.410	11.270	23.650	C.3	1	UNK0	0.000	
33	  C7	6.430	10.510	24.970	C.3	1	UNK0	0.000	
34	  C8	7.040	9.160	24.780	C.3	1	UNK0	0.000	
35	  N6	6.330	8.480	23.690	N.3	1	UNK0	0.000	
36	  C9	5.650	6.400	24.750	C.3	1	UNK0	0.000	
37	 C10	5.190	7.740	24.240	C.3	1	UNK0	0.000	
38	 C11	4.200	7.510	23.090	C.3	1	UNK0	0.000	
39	  S1	3.220	11.820	23.020	S.3	1	UNK0	0.000	
40	 C12	2.270	11.680	24.500	C.2	1	UNK0	0.000	
41	 C13	2.610	10.620	25.350	C.2	1	UNK0	0.000	
42	 C14	1.980	10.510	26.560	C.2	1	UNK0	0.000	
43	  O1	2.190	9.490	27.600	O.3	1	UNK0	0.000	
44	 C15	1.180	9.910	28.700	C.3	1	UNK0	0.000	
45	  O2	0.370	11.190	28.290	O.3	1	UNK0	0.000	
46	 C16	0.930	11.490	26.960	C.2	1	UNK0	0.000	
47	 C17	0.560	12.510	26.090	C.2	1	UNK0	0.000	
48	 C18	1.230	12.600	24.860	C.2	1	UNK0	0.000	
49	 Br1	0.640	13.970	23.670	Br	1	UNK0	0.000	
@<TRIPOS>BOND
1 22 23 1
2 22 31 1
3 22 32 1
4 23 24 1
5 23 29 2
6 24 25 2
7 12 25 1
8 25 26 1
9 26 27 2
10 27 28 1
11 27 29 1
12 8 28 1
13 10 28 1
14 29 30 1
15 30 31 2
16 31 39 1
17 2 32 1
18 7 32 1
19 32 33 1
20 3 33 1
21 14 33 1
22 33 34 1
23 11 34 1
24 13 34 1
25 34 35 1
26 9 35 1
27 35 37 1
28 15 36 1
29 16 36 1
30 17 36 1
31 36 37 1
32 18 37 1
33 37 38 1
34 19 38 1
35 20 38 1
36 21 38 1
37 39 40 1
38 40 41 1
39 40 48 2
40 6 41 1
41 41 42 2
42 42 43 1
43 42 46 1
44 43 44 1
45 4 44 1
46 5 44 1
47 44 45 1
48 45 46 1
49 46 47 2
50 1 47 1
51 47 48 1
52 48 49 1
@<TRIPOS>SUBSTRUCTURE
1	UNK0	1	GROUP	1 ****	UNK
