# created with PyMOL 2.5.0
@<TRIPOS>MOLECULE
MOL
48 52 1                 
SMALL
USER_CHARGES
@<TRIPOS>ATOM
1	 H10	9.880	1.130	19.580	 H	1	UNK0	0.000	
2	 H07	4.120	6.410	24.020	 H	1	UNK0	0.000	
3	 H17	6.420	6.870	25.300	 H	1	UNK0	0.000	
4	 H08	5.550	5.410	23.700	 H	1	UNK0	0.000	
5	 H13	10.700	9.860	23.480	 H	1	UNK0	0.000	
6	 H09	4.330	1.270	19.090	 H	1	UNK0	0.000	
7	 H11	10.000	-0.240	17.530	 H	1	UNK0	0.000	
8	 H15	8.850	7.710	27.060	 H	1	UNK0	0.000	
9	 H03	5.810	4.570	19.860	 H	1	UNK0	0.000	
10	 H12	7.890	-0.850	16.410	 H	1	UNK0	0.000	
11	 H01	6.790	5.670	21.780	 H	1	UNK0	0.000	
12	 H02	6.390	6.900	20.560	 H	1	UNK0	0.000	
13	 H14	12.140	9.100	25.380	 H	1	UNK0	0.000	
14	 H16	9.410	6.260	26.050	 H	1	UNK0	0.000	
15	 H06	2.860	5.290	22.250	 H	1	UNK0	0.000	
16	 H05	3.600	4.030	23.290	 H	1	UNK0	0.000	
17	 H04	4.400	5.680	19.890	 H	1	UNK0	0.000	
18	  N1	5.120	6.850	22.230	N.3	1	UNK0	0.000	
19	  C1	5.980	6.170	21.260	C.3	1	UNK0	0.000	
20	  C2	5.140	5.150	20.490	C.3	1	UNK0	0.000	
21	  N2	4.460	4.230	21.400	N.pl3	1	UNK0	0.000	
22	  C3	4.780	2.910	21.520	C.2	1	UNK0	0.000	
23	  O1	4.400	2.310	22.530	O.2	1	UNK0	0.000	
24	  C4	3.800	4.830	22.570	C.3	1	UNK0	0.000	
25	  C5	4.680	5.890	23.250	C.3	1	UNK0	0.000	
26	  C6	5.600	2.220	20.630	C.2	1	UNK0	0.000	
27	  C7	5.330	1.450	19.480	C.2	1	UNK0	0.000	
28	  C8	6.520	0.940	18.870	C.2	1	UNK0	0.000	
29	  C9	7.710	1.320	19.570	C.2	1	UNK0	0.000	
30	  S1	7.290	2.270	20.890	S.3	1	UNK0	0.000	
31	 C10	8.960	0.860	19.060	C.2	1	UNK0	0.000	
32	 C11	9.040	0.090	17.920	C.2	1	UNK0	0.000	
33	 C12	7.860	-0.240	17.320	C.2	1	UNK0	0.000	
34	  N3	6.690	0.140	17.770	N.pl3	1	UNK0	0.000	
35	  O2	5.650	-0.270	17.090	O.2	1	UNK0	0.000	
36	  S2	5.580	8.450	22.690	S.o2	1	UNK0	0.000	
37	  O3	4.510	8.910	23.580	O.2	1	UNK0	0.000	
38	  O4	5.950	9.140	21.480	O.2	1	UNK0	0.000	
39	  N4	8.000	8.990	23.270	N.2	1	UNK0	0.000	
40	 C13	9.030	8.730	24.170	C.2	1	UNK0	0.000	
41	 C14	10.310	9.170	24.240	C.2	1	UNK0	0.000	
42	 C15	11.120	8.730	25.300	C.2	1	UNK0	0.000	
43	 C16	10.630	7.830	26.240	C.2	1	UNK0	0.000	
44	 Cl1	11.690	7.300	27.510	Cl	1	UNK0	0.000	
45	 C17	9.330	7.340	26.150	C.3	1	UNK0	0.000	
46	 C18	8.520	7.790	25.140	C.2	1	UNK0	0.000	
47	 C19	7.130	7.520	24.790	C.2	1	UNK0	0.000	
48	 C20	6.940	8.280	23.660	C.2	1	UNK0	0.000	
@<TRIPOS>BOND
1 18 19 1
2 18 25 1
3 18 36 1
4 11 19 1
5 12 19 1
6 19 20 1
7 9 20 1
8 17 20 1
9 20 21 1
10 21 22 1
11 21 24 1
12 22 23 2
13 22 26 1
14 15 24 1
15 16 24 1
16 24 25 1
17 2 25 1
18 4 25 1
19 26 27 2
20 26 30 1
21 6 27 1
22 27 28 1
23 28 29 1
24 28 34 2
25 29 30 1
26 29 31 2
27 1 31 1
28 31 32 1
29 7 32 1
30 32 33 2
31 10 33 1
32 33 34 1
33 34 35 1
34 36 37 2
35 36 38 2
36 36 48 1
37 39 40 1
38 39 48 2
39 40 41 2
40 40 46 1
41 5 41 1
42 41 42 1
43 13 42 1
44 42 43 2
45 43 44 1
46 43 45 1
47 8 45 1
48 14 45 1
49 45 46 1
50 46 47 2
51 3 47 1
52 47 48 1
@<TRIPOS>SUBSTRUCTURE
1	UNK0	1	GROUP	1 ****	UNK
