# created with PyMOL 2.5.0
@<TRIPOS>MOLECULE
MOL
31 35 1                 
SMALL
USER_CHARGES
@<TRIPOS>ATOM
1	  N1	5.158	6.814	22.241	N.3	1	UNK0	0.000	
2	  C1	6.016	6.132	21.271	C.3	1	UNK0	0.000	
3	  C2	5.174	5.112	20.503	C.3	1	UNK0	0.000	
4	  N2	4.494	4.194	21.415	N.pl3	1	UNK0	0.000	
5	  C3	4.813	2.873	21.535	C.2	1	UNK0	0.000	
6	  O1	4.433	2.275	22.547	O.2	1	UNK0	0.000	
7	  C4	3.836	4.796	22.585	C.3	1	UNK0	0.000	
8	  C5	4.718	5.855	23.263	C.3	1	UNK0	0.000	
9	  C6	5.631	2.182	20.645	C.2	1	UNK0	0.000	
10	  C7	5.358	1.411	19.496	C.2	1	UNK0	0.000	
11	  C8	6.547	0.899	18.885	C.2	1	UNK0	0.000	
12	  C9	7.738	1.278	19.583	C.2	1	UNK0	0.000	
13	  S1	7.321	2.230	20.903	S.3	1	UNK0	0.000	
14	 C10	8.987	0.816	19.072	C.2	1	UNK0	0.000	
15	 C11	9.065	0.045	17.932	C.2	1	UNK0	0.000	
16	 C12	7.883	-0.284	17.334	C.2	1	UNK0	0.000	
17	  N3	6.714	0.098	17.786	N.pl3	1	UNK0	0.000	
18	  O2	5.673	-0.312	17.107	O.2	1	UNK0	0.000	
19	  S2	5.621	8.414	22.699	S.o2	1	UNK0	0.000	
20	  O3	4.552	8.876	23.590	O.2	1	UNK0	0.000	
21	  O4	5.990	9.102	21.488	O.2	1	UNK0	0.000	
22	  N4	8.042	8.952	23.275	N.2	1	UNK0	0.000	
23	 C13	9.073	8.691	24.174	C.2	1	UNK0	0.000	
24	 C14	10.354	9.130	24.242	C.2	1	UNK0	0.000	
25	 C15	11.165	8.690	25.301	C.2	1	UNK0	0.000	
26	 C16	10.675	7.792	26.243	C.2	1	UNK0	0.000	
27	 Cl1	11.736	7.262	27.512	Cl	1	UNK0	0.000	
28	 C17	9.374	7.303	26.155	C.3	1	UNK0	0.000	
29	 C18	8.563	7.753	25.145	C.2	1	UNK0	0.000	
30	 C19	7.172	7.484	24.798	C.2	1	UNK0	0.000	
31	 C20	6.982	8.243	23.667	C.2	1	UNK0	0.000	
@<TRIPOS>BOND
1 1 2 1
2 1 8 1
3 1 19 1
4 2 3 1
5 3 4 1
6 4 5 1
7 4 7 1
8 5 6 2
9 5 9 1
10 7 8 1
11 9 10 2
12 9 13 1
13 10 11 1
14 11 12 1
15 11 17 2
16 12 13 1
17 12 14 2
18 14 15 1
19 15 16 2
20 16 17 1
21 17 18 1
22 19 20 2
23 19 21 2
24 19 31 1
25 22 23 1
26 22 31 2
27 23 24 2
28 23 29 1
29 24 25 1
30 25 26 2
31 26 27 1
32 26 28 1
33 28 29 1
34 29 30 2
35 30 31 1
@<TRIPOS>SUBSTRUCTURE
1	UNK0	1	GROUP	1 ****	UNK
