# created with PyMOL 2.5.0
@<TRIPOS>MOLECULE
MOL
48 52 1                 
SMALL
USER_CHARGES
@<TRIPOS>ATOM
1	 H10	9.360	4.040	21.660	 H	1	UNK0	0.000	
2	 H07	0.800	8.310	22.450	 H	1	UNK0	0.000	
3	 H17	3.670	9.020	24.870	 H	1	UNK0	0.000	
4	 H08	2.450	7.830	22.870	 H	1	UNK0	0.000	
5	 H13	8.500	9.880	22.150	 H	1	UNK0	0.000	
6	 H09	4.390	4.340	18.900	 H	1	UNK0	0.000	
7	 H11	10.400	3.050	19.650	 H	1	UNK0	0.000	
8	 H15	6.440	8.730	26.310	 H	1	UNK0	0.000	
9	 H03	3.850	6.510	19.090	 H	1	UNK0	0.000	
10	 H12	9.040	2.680	17.530	 H	1	UNK0	0.000	
11	 H01	4.280	8.270	20.690	 H	1	UNK0	0.000	
12	 H02	3.470	8.990	19.280	 H	1	UNK0	0.000	
13	 H14	9.870	9.040	23.960	 H	1	UNK0	0.000	
14	 H16	6.480	7.240	25.370	 H	1	UNK0	0.000	
15	 H06	0.690	6.610	20.680	 H	1	UNK0	0.000	
16	 H05	1.140	5.840	22.210	 H	1	UNK0	0.000	
17	 H04	2.140	6.930	18.990	 H	1	UNK0	0.000	
18	  N1	2.270	8.910	21.040	N.3	1	UNK0	0.000	
19	  C1	3.330	8.330	20.140	C.3	1	UNK0	0.000	
20	  C2	3.010	6.900	19.660	C.3	1	UNK0	0.000	
21	  N2	2.660	6.030	20.770	N.pl3	1	UNK0	0.000	
22	  C3	3.630	5.500	21.600	C.2	1	UNK0	0.000	
23	  O1	3.450	5.570	22.810	O.2	1	UNK0	0.000	
24	  C4	1.480	6.540	21.440	C.3	1	UNK0	0.000	
25	  C5	1.730	7.930	22.050	C.3	1	UNK0	0.000	
26	  C6	4.850	5.020	21.010	C.2	1	UNK0	0.000	
27	  C7	5.130	4.450	19.680	C.2	1	UNK0	0.000	
28	  C8	6.640	4.020	19.540	C.2	1	UNK0	0.000	
29	  C9	7.420	4.250	20.760	C.2	1	UNK0	0.000	
30	  S1	6.370	5.010	22.100	S.3	1	UNK0	0.000	
31	 C10	8.770	3.890	20.760	C.2	1	UNK0	0.000	
32	 C11	9.350	3.320	19.620	C.2	1	UNK0	0.000	
33	 C12	8.630	3.100	18.440	C.2	1	UNK0	0.000	
34	  N3	7.300	3.410	18.320	N.pl3	1	UNK0	0.000	
35	  O2	6.610	3.250	17.270	O.2	1	UNK0	0.000	
36	  S2	2.720	10.400	21.760	S.o2	1	UNK0	0.000	
37	  O3	1.730	10.660	22.770	O.2	1	UNK0	0.000	
38	  O4	3.010	11.320	20.670	O.2	1	UNK0	0.000	
39	  N4	5.620	10.130	22.060	N.2	1	UNK0	0.000	
40	 C13	6.680	9.480	23.070	C.2	1	UNK0	0.000	
41	 C14	8.020	9.450	23.030	C.2	1	UNK0	0.000	
42	 C15	8.780	8.970	24.040	C.2	1	UNK0	0.000	
43	 C16	8.240	8.450	25.160	C.2	1	UNK0	0.000	
44	 Cl1	9.220	7.960	26.480	Cl	1	UNK0	0.000	
45	 C17	6.730	8.310	25.350	C.3	1	UNK0	0.000	
46	 C18	5.930	8.980	24.270	C.2	1	UNK0	0.000	
47	 C19	4.470	9.250	24.180	C.2	1	UNK0	0.000	
48	 C20	4.300	10.060	22.640	C.2	1	UNK0	0.000	
@<TRIPOS>BOND
1 18 19 1
2 18 25 1
3 18 36 1
4 11 19 1
5 12 19 1
6 19 20 1
7 9 20 1
8 17 20 1
9 20 21 1
10 21 22 1
11 21 24 1
12 22 23 2
13 22 26 1
14 15 24 1
15 16 24 1
16 24 25 1
17 2 25 1
18 4 25 1
19 26 27 2
20 26 30 1
21 6 27 1
22 27 28 1
23 28 29 1
24 28 34 2
25 29 30 1
26 29 31 2
27 1 31 1
28 31 32 1
29 7 32 1
30 32 33 2
31 10 33 1
32 33 34 1
33 34 35 1
34 36 37 2
35 36 38 2
36 36 48 1
37 39 40 1
38 39 48 2
39 40 41 2
40 40 46 1
41 5 41 1
42 41 42 1
43 13 42 1
44 42 43 2
45 43 44 1
46 43 45 1
47 8 45 1
48 14 45 1
49 45 46 1
50 46 47 2
51 3 47 1
52 47 48 1
@<TRIPOS>SUBSTRUCTURE
1	UNK0	1	GROUP	1 ****	UNK
