# created with PyMOL 2.5.0
@<TRIPOS>MOLECULE
MOL
31 35 1                 
SMALL
USER_CHARGES
@<TRIPOS>ATOM
1	  N1	6.440	6.547	23.294	N.3	1	UNK0	0.000	
2	  C1	7.428	6.098	22.256	C.3	1	UNK0	0.000	
3	  C2	7.027	6.427	20.794	C.3	1	UNK0	0.000	
4	  N2	5.666	5.967	20.539	N.pl3	1	UNK0	0.000	
5	  C3	5.284	4.812	19.879	C.2	1	UNK0	0.000	
6	  O1	4.083	4.553	19.852	O.2	1	UNK0	0.000	
7	  C4	4.738	6.644	21.416	C.3	1	UNK0	0.000	
8	  C5	5.009	6.275	22.878	C.3	1	UNK0	0.000	
9	  C6	6.222	3.927	19.264	C.2	1	UNK0	0.000	
10	  C7	5.999	3.118	18.060	C.2	1	UNK0	0.000	
11	  C8	7.198	2.125	17.776	C.2	1	UNK0	0.000	
12	  C9	8.269	2.221	18.784	C.2	1	UNK0	0.000	
13	  S1	7.833	3.451	20.115	S.3	1	UNK0	0.000	
14	 C10	9.388	1.429	18.628	C.2	1	UNK0	0.000	
15	 C11	9.516	0.570	17.534	C.2	1	UNK0	0.000	
16	 C12	8.494	0.434	16.557	C.2	1	UNK0	0.000	
17	  N3	7.335	1.156	16.623	N.pl3	1	UNK0	0.000	
18	  O2	6.404	1.080	15.765	O.2	1	UNK0	0.000	
19	  S2	6.713	8.022	24.043	S.o2	1	UNK0	0.000	
20	  O3	5.624	8.230	24.963	O.2	1	UNK0	0.000	
21	  O4	6.972	8.974	22.965	O.2	1	UNK0	0.000	
22	  N4	9.613	7.873	24.570	N.2	1	UNK0	0.000	
23	 C13	10.605	7.611	25.810	C.2	1	UNK0	0.000	
24	 C14	11.935	7.400	25.830	C.2	1	UNK0	0.000	
25	 C15	12.586	6.907	26.913	C.2	1	UNK0	0.000	
26	 C16	11.957	6.667	28.076	C.2	1	UNK0	0.000	
27	 Cl1	12.778	5.896	29.380	Cl	1	UNK0	0.000	
28	 C17	10.478	6.960	28.295	C.3	1	UNK0	0.000	
29	 C18	9.776	7.401	27.033	C.2	1	UNK0	0.000	
30	 C19	8.316	7.531	26.764	C.2	1	UNK0	0.000	
31	 C20	8.254	7.858	25.052	C.2	1	UNK0	0.000	
@<TRIPOS>BOND
1 1 2 1
2 1 8 1
3 1 19 1
4 2 3 1
5 3 4 1
6 4 5 1
7 4 7 1
8 5 6 2
9 5 9 1
10 7 8 1
11 9 10 2
12 9 13 1
13 10 11 1
14 11 12 1
15 11 17 2
16 12 13 1
17 12 14 2
18 14 15 1
19 15 16 2
20 16 17 1
21 17 18 1
22 19 20 2
23 19 21 2
24 19 31 1
25 22 23 1
26 22 31 2
27 23 24 2
28 23 29 1
29 24 25 1
30 25 26 2
31 26 27 1
32 26 28 1
33 28 29 1
34 29 30 2
35 30 31 1
@<TRIPOS>SUBSTRUCTURE
1	UNK0	1	GROUP	1 ****	UNK
