# created with PyMOL 2.5.0
@<TRIPOS>MOLECULE
MOL
31 35 1                 
SMALL
USER_CHARGES
@<TRIPOS>ATOM
1	  N1	6.945	8.335	23.718	N.3	1	UNK0	0.000	
2	  C1	5.923	8.996	22.885	C.3	1	UNK0	0.000	
3	  C2	4.534	8.533	23.366	C.3	1	UNK0	0.000	
4	  N2	4.347	7.085	23.545	N.pl3	1	UNK0	0.000	
5	  C3	3.132	6.508	23.819	C.2	1	UNK0	0.000	
6	  O1	3.072	5.341	24.195	O.2	1	UNK0	0.000	
7	  C4	5.538	6.326	23.942	C.3	1	UNK0	0.000	
8	  C5	6.859	6.897	23.395	C.3	1	UNK0	0.000	
9	  C6	1.953	7.336	23.765	C.2	1	UNK0	0.000	
10	  C7	1.695	8.688	24.291	C.2	1	UNK0	0.000	
11	  C8	0.203	9.145	24.031	C.2	1	UNK0	0.000	
12	  C9	-0.602	8.120	23.344	C.2	1	UNK0	0.000	
13	  S1	0.410	6.583	23.019	S.3	1	UNK0	0.000	
14	 C10	-1.925	8.407	23.045	C.2	1	UNK0	0.000	
15	 C11	-2.470	9.659	23.403	C.2	1	UNK0	0.000	
16	 C12	-1.723	10.641	24.061	C.2	1	UNK0	0.000	
17	  N3	-0.416	10.472	24.403	N.pl3	1	UNK0	0.000	
18	  O2	0.300	11.303	25.056	O.2	1	UNK0	0.000	
19	  S2	8.509	8.995	23.630	S.o2	1	UNK0	0.000	
20	  O3	8.332	10.423	23.807	O.2	1	UNK0	0.000	
21	  O4	9.105	8.394	22.451	O.2	1	UNK0	0.000	
22	  N4	10.709	8.327	25.483	N.2	1	UNK0	0.000	
23	 C13	10.898	7.483	26.844	C.2	1	UNK0	0.000	
24	 C14	11.993	7.072	27.493	C.2	1	UNK0	0.000	
25	 C15	11.959	6.176	28.527	C.2	1	UNK0	0.000	
26	 C16	10.804	5.657	28.982	C.2	1	UNK0	0.000	
27	 Cl1	10.733	4.374	30.135	Cl	1	UNK0	0.000	
28	 C17	9.459	6.080	28.448	C.3	1	UNK0	0.000	
29	 C18	9.550	6.994	27.263	C.2	1	UNK0	0.000	
30	 C19	8.460	7.414	26.345	C.2	1	UNK0	0.000	
31	 C20	9.311	8.331	25.127	C.2	1	UNK0	0.000	
@<TRIPOS>BOND
1 1 2 1
2 1 8 1
3 1 19 1
4 2 3 1
5 3 4 1
6 4 5 1
7 4 7 1
8 5 6 2
9 5 9 1
10 7 8 1
11 9 10 2
12 9 13 1
13 10 11 1
14 11 12 1
15 11 17 2
16 12 13 1
17 12 14 2
18 14 15 1
19 15 16 2
20 16 17 1
21 17 18 1
22 19 20 2
23 19 21 2
24 19 31 1
25 22 23 1
26 22 31 2
27 23 24 2
28 23 29 1
29 24 25 1
30 25 26 2
31 26 27 1
32 26 28 1
33 28 29 1
34 29 30 2
35 30 31 1
@<TRIPOS>SUBSTRUCTURE
1	UNK0	1	GROUP	1 ****	UNK
