# created with PyMOL 2.5.0
@<TRIPOS>MOLECULE
MOL
48 52 1                 
SMALL
USER_CHARGES
@<TRIPOS>ATOM
1	 H10	9.900	1.280	19.190	 H	1	UNK0	0.000	
2	 H07	3.800	6.410	23.780	 H	1	UNK0	0.000	
3	 H17	6.540	6.550	25.270	 H	1	UNK0	0.000	
4	 H08	5.330	5.520	23.670	 H	1	UNK0	0.000	
5	 H13	10.880	9.730	23.690	 H	1	UNK0	0.000	
6	 H09	4.210	0.860	19.140	 H	1	UNK0	0.000	
7	 H11	9.970	-0.150	17.160	 H	1	UNK0	0.000	
8	 H15	8.940	7.290	27.190	 H	1	UNK0	0.000	
9	 H03	5.770	4.330	19.790	 H	1	UNK0	0.000	
10	 H12	7.800	-1.020	16.110	 H	1	UNK0	0.000	
11	 H01	6.730	5.710	21.660	 H	1	UNK0	0.000	
12	 H02	6.200	6.730	20.300	 H	1	UNK0	0.000	
13	 H14	12.300	8.920	25.500	 H	1	UNK0	0.000	
14	 H16	9.520	5.960	26.140	 H	1	UNK0	0.000	
15	 H06	2.840	5.060	21.950	 H	1	UNK0	0.000	
16	 H05	3.380	4.030	23.290	 H	1	UNK0	0.000	
17	 H04	4.270	5.240	19.890	 H	1	UNK0	0.000	
18	  N1	4.960	6.790	22.030	N.3	1	UNK0	0.000	
19	  C1	5.860	6.070	21.100	C.3	1	UNK0	0.000	
20	  C2	5.120	4.870	20.480	C.3	1	UNK0	0.000	
21	  N2	4.530	4.000	21.500	N.pl3	1	UNK0	0.000	
22	  C3	4.640	2.630	21.560	C.2	1	UNK0	0.000	
23	  O1	4.060	2.010	22.440	O.2	1	UNK0	0.000	
24	  C4	3.720	4.700	22.490	C.3	1	UNK0	0.000	
25	  C5	4.470	5.890	23.100	C.3	1	UNK0	0.000	
26	  C6	5.510	2.020	20.590	C.2	1	UNK0	0.000	
27	  C7	5.200	1.160	19.440	C.2	1	UNK0	0.000	
28	  C8	6.520	0.720	18.700	C.2	1	UNK0	0.000	
29	  C9	7.750	1.240	19.310	C.2	1	UNK0	0.000	
30	  S1	7.350	2.300	20.770	S.3	1	UNK0	0.000	
31	 C10	8.980	0.900	18.750	C.2	1	UNK0	0.000	
32	 C11	9.010	0.080	17.610	C.2	1	UNK0	0.000	
33	 C12	7.840	-0.420	17.010	C.2	1	UNK0	0.000	
34	  N3	6.600	-0.180	17.520	N.pl3	1	UNK0	0.000	
35	  O2	5.500	-0.560	17.010	O.2	1	UNK0	0.000	
36	  S2	5.430	8.340	22.500	S.o2	1	UNK0	0.000	
37	  O3	4.390	8.790	23.410	O.2	1	UNK0	0.000	
38	  O4	5.730	9.040	21.270	O.2	1	UNK0	0.000	
39	  N4	8.150	8.990	23.180	N.2	1	UNK0	0.000	
40	 C13	9.220	8.630	24.290	C.2	1	UNK0	0.000	
41	 C14	10.500	9.020	24.410	C.2	1	UNK0	0.000	
42	 C15	11.270	8.580	25.430	C.2	1	UNK0	0.000	
43	 C16	10.820	7.660	26.310	C.2	1	UNK0	0.000	
44	 Cl1	11.850	6.940	27.450	Cl	1	UNK0	0.000	
45	 C17	9.450	7.040	26.250	C.3	1	UNK0	0.000	
46	 C18	8.640	7.560	25.170	C.2	1	UNK0	0.000	
47	 C19	7.230	7.250	24.810	C.2	1	UNK0	0.000	
48	 C20	6.950	8.270	23.490	C.2	1	UNK0	0.000	
@<TRIPOS>BOND
1 18 19 1
2 18 25 1
3 18 36 1
4 11 19 1
5 12 19 1
6 19 20 1
7 9 20 1
8 17 20 1
9 20 21 1
10 21 22 1
11 21 24 1
12 22 23 2
13 22 26 1
14 15 24 1
15 16 24 1
16 24 25 1
17 2 25 1
18 4 25 1
19 26 27 2
20 26 30 1
21 6 27 1
22 27 28 1
23 28 29 1
24 28 34 2
25 29 30 1
26 29 31 2
27 1 31 1
28 31 32 1
29 7 32 1
30 32 33 2
31 10 33 1
32 33 34 1
33 34 35 1
34 36 37 2
35 36 38 2
36 36 48 1
37 39 40 1
38 39 48 2
39 40 41 2
40 40 46 1
41 5 41 1
42 41 42 1
43 13 42 1
44 42 43 2
45 43 44 1
46 43 45 1
47 8 45 1
48 14 45 1
49 45 46 1
50 46 47 2
51 3 47 1
52 47 48 1
@<TRIPOS>SUBSTRUCTURE
1	UNK0	1	GROUP	1 ****	UNK
