# created with PyMOL 2.5.0
@<TRIPOS>MOLECULE
MOL
31 35 1                 
SMALL
USER_CHARGES
@<TRIPOS>ATOM
1	  N1	4.998	6.754	22.041	N.3	1	UNK0	0.000	
2	  C1	5.896	6.032	21.111	C.3	1	UNK0	0.000	
3	  C2	5.154	4.832	20.493	C.3	1	UNK0	0.000	
4	  N2	4.564	3.964	21.515	N.pl3	1	UNK0	0.000	
5	  C3	4.672	2.594	21.576	C.2	1	UNK0	0.000	
6	  O1	4.093	1.975	22.457	O.2	1	UNK0	0.000	
7	  C4	3.756	4.666	22.505	C.3	1	UNK0	0.000	
8	  C5	4.508	5.855	23.113	C.3	1	UNK0	0.000	
9	  C6	5.540	1.982	20.605	C.2	1	UNK0	0.000	
10	  C7	5.228	1.121	19.457	C.2	1	UNK0	0.000	
11	  C8	6.546	0.679	18.715	C.2	1	UNK0	0.000	
12	  C9	7.778	1.198	19.323	C.2	1	UNK0	0.000	
13	  S1	7.381	2.260	20.783	S.3	1	UNK0	0.000	
14	 C10	9.007	0.856	18.762	C.2	1	UNK0	0.000	
15	 C11	9.034	0.035	17.622	C.2	1	UNK0	0.000	
16	 C12	7.863	-0.464	17.025	C.2	1	UNK0	0.000	
17	  N3	6.624	-0.223	17.536	N.pl3	1	UNK0	0.000	
18	  O2	5.523	-0.602	17.028	O.2	1	UNK0	0.000	
19	  S2	5.470	8.304	22.509	S.o2	1	UNK0	0.000	
20	  O3	4.432	8.756	23.420	O.2	1	UNK0	0.000	
21	  O4	5.769	9.002	21.278	O.2	1	UNK0	0.000	
22	  N4	8.192	8.951	23.185	N.2	1	UNK0	0.000	
23	 C13	9.263	8.591	24.294	C.2	1	UNK0	0.000	
24	 C14	10.544	8.980	24.412	C.2	1	UNK0	0.000	
25	 C15	11.315	8.540	25.431	C.2	1	UNK0	0.000	
26	 C16	10.865	7.621	26.312	C.2	1	UNK0	0.000	
27	 Cl1	11.895	6.901	27.452	Cl	1	UNK0	0.000	
28	 C17	9.494	7.003	26.255	C.3	1	UNK0	0.000	
29	 C18	8.683	7.523	25.176	C.2	1	UNK0	0.000	
30	 C19	7.272	7.214	24.818	C.2	1	UNK0	0.000	
31	 C20	6.992	8.233	23.497	C.2	1	UNK0	0.000	
@<TRIPOS>BOND
1 1 2 1
2 1 8 1
3 1 19 1
4 2 3 1
5 3 4 1
6 4 5 1
7 4 7 1
8 5 6 2
9 5 9 1
10 7 8 1
11 9 10 2
12 9 13 1
13 10 11 1
14 11 12 1
15 11 17 2
16 12 13 1
17 12 14 2
18 14 15 1
19 15 16 2
20 16 17 1
21 17 18 1
22 19 20 2
23 19 21 2
24 19 31 1
25 22 23 1
26 22 31 2
27 23 24 2
28 23 29 1
29 24 25 1
30 25 26 2
31 26 27 1
32 26 28 1
33 28 29 1
34 29 30 2
35 30 31 1
@<TRIPOS>SUBSTRUCTURE
1	UNK0	1	GROUP	1 ****	UNK
