# created with PyMOL 2.5.0
@<TRIPOS>MOLECULE
MOL
48 52 1                 
SMALL
USER_CHARGES
@<TRIPOS>ATOM
1	 H10	10.670	1.560	19.900	 H	1	UNK0	0.000	
2	 H07	4.760	6.800	24.130	 H	1	UNK0	0.000	
3	 H17	7.920	7.360	28.030	 H	1	UNK0	0.000	
4	 H08	5.300	5.230	23.600	 H	1	UNK0	0.000	
5	 H13	12.920	7.540	25.510	 H	1	UNK0	0.000	
6	 H09	5.570	3.250	18.010	 H	1	UNK0	0.000	
7	 H11	10.880	0.050	17.970	 H	1	UNK0	0.000	
8	 H15	10.820	7.730	29.660	 H	1	UNK0	0.000	
9	 H03	8.180	6.080	20.660	 H	1	UNK0	0.000	
10	 H12	9.010	-0.140	16.260	 H	1	UNK0	0.000	
11	 H01	7.990	5.060	22.960	 H	1	UNK0	0.000	
12	 H02	8.890	6.560	23.060	 H	1	UNK0	0.000	
13	 H14	14.090	6.690	27.430	 H	1	UNK0	0.000	
14	 H16	10.420	6.050	29.270	 H	1	UNK0	0.000	
15	 H06	5.310	7.740	21.870	 H	1	UNK0	0.000	
16	 H05	4.130	6.430	21.750	 H	1	UNK0	0.000	
17	 H04	7.460	7.540	21.270	 H	1	UNK0	0.000	
18	  N1	6.890	6.570	23.890	N.3	1	UNK0	0.000	
19	  C1	7.880	6.130	22.850	C.3	1	UNK0	0.000	
20	  C2	7.480	6.470	21.390	C.3	1	UNK0	0.000	
21	  N2	6.120	6.010	21.130	N.pl3	1	UNK0	0.000	
22	  C3	5.740	4.860	20.460	C.2	1	UNK0	0.000	
23	  O1	4.540	4.600	20.430	O.2	1	UNK0	0.000	
24	  C4	5.190	6.680	22.010	C.3	1	UNK0	0.000	
25	  C5	5.460	6.300	23.470	C.3	1	UNK0	0.000	
26	  C6	6.680	3.980	19.840	C.2	1	UNK0	0.000	
27	  C7	6.460	3.180	18.630	C.2	1	UNK0	0.000	
28	  C8	7.660	2.190	18.340	C.2	1	UNK0	0.000	
29	  C9	8.730	2.280	19.350	C.2	1	UNK0	0.000	
30	  S1	8.290	3.500	20.690	S.3	1	UNK0	0.000	
31	 C10	9.850	1.490	19.190	C.2	1	UNK0	0.000	
32	 C11	9.980	0.640	18.090	C.2	1	UNK0	0.000	
33	 C12	8.960	0.510	17.110	C.2	1	UNK0	0.000	
34	  N3	7.800	1.230	17.180	N.pl3	1	UNK0	0.000	
35	  O2	6.870	1.160	16.320	O.2	1	UNK0	0.000	
36	  S2	7.160	8.040	24.650	S.o2	1	UNK0	0.000	
37	  O3	6.070	8.240	25.570	O.2	1	UNK0	0.000	
38	  O4	7.420	9.000	23.580	O.2	1	UNK0	0.000	
39	  N4	10.060	7.890	25.180	N.2	1	UNK0	0.000	
40	 C13	11.050	7.620	26.420	C.2	1	UNK0	0.000	
41	 C14	12.380	7.410	26.440	C.2	1	UNK0	0.000	
42	 C15	13.030	6.910	27.520	C.2	1	UNK0	0.000	
43	 C16	12.400	6.660	28.680	C.2	1	UNK0	0.000	
44	 Cl1	13.220	5.880	29.980	Cl	1	UNK0	0.000	
45	 C17	10.920	6.950	28.900	C.3	1	UNK0	0.000	
46	 C18	10.220	7.400	27.640	C.2	1	UNK0	0.000	
47	 C19	8.760	7.530	27.370	C.2	1	UNK0	0.000	
48	 C20	8.700	7.870	25.660	C.2	1	UNK0	0.000	
@<TRIPOS>BOND
1 18 19 1
2 18 25 1
3 18 36 1
4 11 19 1
5 12 19 1
6 19 20 1
7 9 20 1
8 17 20 1
9 20 21 1
10 21 22 1
11 21 24 1
12 22 23 2
13 22 26 1
14 15 24 1
15 16 24 1
16 24 25 1
17 2 25 1
18 4 25 1
19 26 27 2
20 26 30 1
21 6 27 1
22 27 28 1
23 28 29 1
24 28 34 2
25 29 30 1
26 29 31 2
27 1 31 1
28 31 32 1
29 7 32 1
30 32 33 2
31 10 33 1
32 33 34 1
33 34 35 1
34 36 37 2
35 36 38 2
36 36 48 1
37 39 40 1
38 39 48 2
39 40 41 2
40 40 46 1
41 5 41 1
42 41 42 1
43 13 42 1
44 42 43 2
45 43 44 1
46 43 45 1
47 8 45 1
48 14 45 1
49 45 46 1
50 46 47 2
51 3 47 1
52 47 48 1
@<TRIPOS>SUBSTRUCTURE
1	UNK0	1	GROUP	1 ****	UNK
