# created with PyMOL 2.5.0
@<TRIPOS>MOLECULE
MOL
31 35 1                 
SMALL
USER_CHARGES
@<TRIPOS>ATOM
1	  N1	5.232	5.287	23.469	N.3	1	UNK0	0.000	
2	  C1	5.935	4.971	22.181	C.3	1	UNK0	0.000	
3	  C2	5.188	5.471	20.916	C.3	1	UNK0	0.000	
4	  N2	3.779	5.105	20.912	N.pl3	1	UNK0	0.000	
5	  C3	3.308	3.929	20.366	C.2	1	UNK0	0.000	
6	  O1	2.427	3.331	20.967	O.2	1	UNK0	0.000	
7	  C4	3.116	5.545	22.137	C.3	1	UNK0	0.000	
8	  C5	3.791	4.928	23.376	C.3	1	UNK0	0.000	
9	  C6	3.829	3.486	19.093	C.2	1	UNK0	0.000	
10	  C7	4.441	4.233	17.976	C.2	1	UNK0	0.000	
11	  C8	4.681	3.305	16.718	C.2	1	UNK0	0.000	
12	  C9	4.244	1.918	16.949	C.2	1	UNK0	0.000	
13	  S1	3.567	1.685	18.663	S.3	1	UNK0	0.000	
14	 C10	4.368	0.999	15.905	C.2	1	UNK0	0.000	
15	 C11	4.860	1.406	14.668	C.2	1	UNK0	0.000	
16	 C12	5.275	2.725	14.413	C.2	1	UNK0	0.000	
17	  N3	5.230	3.708	15.359	N.pl3	1	UNK0	0.000	
18	  O2	5.614	4.903	15.187	O.2	1	UNK0	0.000	
19	  S2	5.533	6.821	24.132	S.o2	1	UNK0	0.000	
20	  O3	4.701	6.887	25.317	O.2	1	UNK0	0.000	
21	  O4	5.330	7.757	23.044	O.2	1	UNK0	0.000	
22	  N4	8.298	7.751	24.183	N.2	1	UNK0	0.000	
23	 C13	9.644	7.562	25.044	C.2	1	UNK0	0.000	
24	 C14	10.864	8.102	24.903	C.2	1	UNK0	0.000	
25	 C15	11.923	7.747	25.659	C.2	1	UNK0	0.000	
26	 C16	11.823	6.815	26.634	C.2	1	UNK0	0.000	
27	 Cl1	13.235	6.152	27.373	Cl	1	UNK0	0.000	
28	 C17	10.498	6.201	27.044	C.3	1	UNK0	0.000	
29	 C18	9.373	6.540	26.097	C.2	1	UNK0	0.000	
30	 C19	7.988	5.988	26.021	C.2	1	UNK0	0.000	
31	 C20	7.288	6.873	24.679	C.2	1	UNK0	0.000	
@<TRIPOS>BOND
1 1 2 1
2 1 8 1
3 1 19 1
4 2 3 1
5 3 4 1
6 4 5 1
7 4 7 1
8 5 6 2
9 5 9 1
10 7 8 1
11 9 10 2
12 9 13 1
13 10 11 1
14 11 12 1
15 11 17 2
16 12 13 1
17 12 14 2
18 14 15 1
19 15 16 2
20 16 17 1
21 17 18 1
22 19 20 2
23 19 21 2
24 19 31 1
25 22 23 1
26 22 31 2
27 23 24 2
28 23 29 1
29 24 25 1
30 25 26 2
31 26 27 1
32 26 28 1
33 28 29 1
34 29 30 2
35 30 31 1
@<TRIPOS>SUBSTRUCTURE
1	UNK0	1	GROUP	1 ****	UNK
