# created with PyMOL 2.5.0
@<TRIPOS>MOLECULE
MOL
48 52 1                 
SMALL
USER_CHARGES
@<TRIPOS>ATOM
1	 H10	8.300	2.360	20.620	 H	1	UNK0	0.000	
2	 H07	3.630	8.690	25.710	 H	1	UNK0	0.000	
3	 H17	7.160	7.570	25.910	 H	1	UNK0	0.000	
4	 H08	5.080	7.670	25.610	 H	1	UNK0	0.000	
5	 H13	11.020	11.590	25.320	 H	1	UNK0	0.000	
6	 H09	2.760	2.350	22.040	 H	1	UNK0	0.000	
7	 H11	7.880	0.490	19.080	 H	1	UNK0	0.000	
8	 H15	9.750	7.950	27.880	 H	1	UNK0	0.000	
9	 H03	4.990	6.030	21.810	 H	1	UNK0	0.000	
10	 H12	5.550	-0.510	18.820	 H	1	UNK0	0.000	
11	 H01	6.300	7.520	23.330	 H	1	UNK0	0.000	
12	 H02	5.610	8.440	21.970	 H	1	UNK0	0.000	
13	 H14	12.730	10.320	26.430	 H	1	UNK0	0.000	
14	 H16	10.190	7.030	26.450	 H	1	UNK0	0.000	
15	 H06	2.430	7.200	24.160	 H	1	UNK0	0.000	
16	 H05	3.040	6.300	25.540	 H	1	UNK0	0.000	
17	 H04	3.590	7.040	22.010	 H	1	UNK0	0.000	
18	  N1	4.680	8.780	23.850	N.3	1	UNK0	0.000	
19	  C1	5.370	7.890	22.880	C.3	1	UNK0	0.000	
20	  C2	4.490	6.680	22.520	C.3	1	UNK0	0.000	
21	  N2	4.000	5.960	23.700	N.pl3	1	UNK0	0.000	
22	  C3	3.710	4.610	23.720	C.2	1	UNK0	0.000	
23	  O1	2.870	4.210	24.510	O.2	1	UNK0	0.000	
24	  C4	3.340	6.840	24.650	C.3	1	UNK0	0.000	
25	  C5	4.220	8.040	25.050	C.3	1	UNK0	0.000	
26	  C6	4.390	3.750	22.780	C.2	1	UNK0	0.000	
27	  C7	3.810	2.640	22.020	C.2	1	UNK0	0.000	
28	  C8	4.910	1.910	21.130	C.2	1	UNK0	0.000	
29	  C9	6.250	2.490	21.290	C.2	1	UNK0	0.000	
30	  S1	6.250	3.880	22.520	S.3	1	UNK0	0.000	
31	 C10	7.290	1.950	20.530	C.2	1	UNK0	0.000	
32	 C11	7.050	0.890	19.650	C.2	1	UNK0	0.000	
33	 C12	5.780	0.320	19.480	C.2	1	UNK0	0.000	
34	  N3	4.690	0.760	20.170	N.pl3	1	UNK0	0.000	
35	  O2	3.520	0.280	20.080	O.2	1	UNK0	0.000	
36	  S2	5.480	10.240	24.190	S.o2	1	UNK0	0.000	
37	  O3	4.740	10.840	25.280	O.2	1	UNK0	0.000	
38	  O4	5.600	10.920	22.910	O.2	1	UNK0	0.000	
39	  N4	8.270	10.810	24.780	N.2	1	UNK0	0.000	
40	 C13	9.530	10.150	25.530	C.2	1	UNK0	0.000	
41	 C14	10.780	10.610	25.720	C.2	1	UNK0	0.000	
42	 C15	11.730	9.900	26.360	C.2	1	UNK0	0.000	
43	 C16	11.500	8.670	26.870	C.2	1	UNK0	0.000	
44	 Cl1	12.790	7.710	27.500	Cl	1	UNK0	0.000	
45	 C17	10.120	8.030	26.850	C.3	1	UNK0	0.000	
46	 C18	9.120	8.810	26.030	C.2	1	UNK0	0.000	
47	 C19	7.720	8.460	25.660	C.2	1	UNK0	0.000	
48	 C20	7.170	9.880	24.800	C.2	1	UNK0	0.000	
@<TRIPOS>BOND
1 18 19 1
2 18 25 1
3 18 36 1
4 11 19 1
5 12 19 1
6 19 20 1
7 9 20 1
8 17 20 1
9 20 21 1
10 21 22 1
11 21 24 1
12 22 23 2
13 22 26 1
14 15 24 1
15 16 24 1
16 24 25 1
17 2 25 1
18 4 25 1
19 26 27 2
20 26 30 1
21 6 27 1
22 27 28 1
23 28 29 1
24 28 34 2
25 29 30 1
26 29 31 2
27 1 31 1
28 31 32 1
29 7 32 1
30 32 33 2
31 10 33 1
32 33 34 1
33 34 35 1
34 36 37 2
35 36 38 2
36 36 48 1
37 39 40 1
38 39 48 2
39 40 41 2
40 40 46 1
41 5 41 1
42 41 42 1
43 13 42 1
44 42 43 2
45 43 44 1
46 43 45 1
47 8 45 1
48 14 45 1
49 45 46 1
50 46 47 2
51 3 47 1
52 47 48 1
@<TRIPOS>SUBSTRUCTURE
1	UNK0	1	GROUP	1 ****	UNK
