# created with PyMOL 2.5.0
@<TRIPOS>MOLECULE
MOL
48 52 1                 
SMALL
USER_CHARGES
@<TRIPOS>ATOM
1	 H10	6.120	0.980	17.730	 H	1	UNK0	0.000	
2	 H07	3.320	9.600	21.150	 H	1	UNK0	0.000	
3	 H17	5.470	8.370	23.590	 H	1	UNK0	0.000	
4	 H08	4.690	8.520	21.500	 H	1	UNK0	0.000	
5	 H13	10.180	11.020	25.170	 H	1	UNK0	0.000	
6	 H09	5.840	6.510	16.390	 H	1	UNK0	0.000	
7	 H11	6.130	0.410	15.330	 H	1	UNK0	0.000	
8	 H15	6.890	7.760	26.340	 H	1	UNK0	0.000	
9	 H03	6.900	8.280	18.070	 H	1	UNK0	0.000	
10	 H12	6.120	2.230	13.550	 H	1	UNK0	0.000	
11	 H01	6.990	9.110	20.380	 H	1	UNK0	0.000	
12	 H02	7.010	10.510	19.290	 H	1	UNK0	0.000	
13	 H14	10.690	9.420	26.880	 H	1	UNK0	0.000	
14	 H16	7.940	6.960	25.180	 H	1	UNK0	0.000	
15	 H06	3.400	9.010	18.760	 H	1	UNK0	0.000	
16	 H05	3.140	7.570	19.760	 H	1	UNK0	0.000	
17	 H04	5.550	9.370	17.700	 H	1	UNK0	0.000	
18	  N1	5.200	10.240	20.390	N.3	1	UNK0	0.000	
19	  C1	6.400	9.690	19.670	C.3	1	UNK0	0.000	
20	  C2	6.000	8.770	18.480	C.3	1	UNK0	0.000	
21	  N2	5.020	7.750	18.850	N.pl3	1	UNK0	0.000	
22	  C3	5.470	6.580	19.400	C.2	1	UNK0	0.000	
23	  O1	5.160	6.350	20.560	O.2	1	UNK0	0.000	
24	  C4	3.870	8.350	19.500	C.3	1	UNK0	0.000	
25	  C5	4.240	9.160	20.740	C.3	1	UNK0	0.000	
26	  C6	5.810	5.560	18.450	C.2	1	UNK0	0.000	
27	  C7	5.920	5.610	16.970	C.2	1	UNK0	0.000	
28	  C8	6.080	4.150	16.360	C.2	1	UNK0	0.000	
29	  C9	6.080	3.100	17.380	C.2	1	UNK0	0.000	
30	  S1	5.960	3.820	19.100	S.3	1	UNK0	0.000	
31	 C10	6.120	1.770	16.990	C.2	1	UNK0	0.000	
32	 C11	6.120	1.450	15.610	C.2	1	UNK0	0.000	
33	 C12	6.100	2.430	14.620	C.2	1	UNK0	0.000	
34	  N3	6.110	3.770	14.880	N.pl3	1	UNK0	0.000	
35	  O2	6.170	4.680	14.010	O.2	1	UNK0	0.000	
36	  S2	5.540	11.350	21.630	S.o2	1	UNK0	0.000	
37	  O3	4.290	11.580	22.330	O.2	1	UNK0	0.000	
38	  O4	6.270	12.440	21.020	O.2	1	UNK0	0.000	
39	  N4	7.860	11.070	23.390	N.2	1	UNK0	0.000	
40	 C13	8.420	10.090	24.530	C.2	1	UNK0	0.000	
41	 C14	9.510	10.170	25.310	C.2	1	UNK0	0.000	
42	 C15	9.810	9.260	26.260	C.2	1	UNK0	0.000	
43	 C16	8.990	8.230	26.550	C.2	1	UNK0	0.000	
44	 Cl1	9.290	7.200	27.900	Cl	1	UNK0	0.000	
45	 C17	7.760	7.900	25.710	C.3	1	UNK0	0.000	
46	 C18	7.460	8.950	24.660	C.2	1	UNK0	0.000	
47	 C19	6.320	9.040	23.720	C.2	1	UNK0	0.000	
48	 C20	6.640	10.520	22.850	C.2	1	UNK0	0.000	
@<TRIPOS>BOND
1 18 19 1
2 18 25 1
3 18 36 1
4 11 19 1
5 12 19 1
6 19 20 1
7 9 20 1
8 17 20 1
9 20 21 1
10 21 22 1
11 21 24 1
12 22 23 2
13 22 26 1
14 15 24 1
15 16 24 1
16 24 25 1
17 2 25 1
18 4 25 1
19 26 27 2
20 26 30 1
21 6 27 1
22 27 28 1
23 28 29 1
24 28 34 2
25 29 30 1
26 29 31 2
27 1 31 1
28 31 32 1
29 7 32 1
30 32 33 2
31 10 33 1
32 33 34 1
33 34 35 1
34 36 37 2
35 36 38 2
36 36 48 1
37 39 40 1
38 39 48 2
39 40 41 2
40 40 46 1
41 5 41 1
42 41 42 1
43 13 42 1
44 42 43 2
45 43 44 1
46 43 45 1
47 8 45 1
48 14 45 1
49 45 46 1
50 46 47 2
51 3 47 1
52 47 48 1
@<TRIPOS>SUBSTRUCTURE
1	UNK0	1	GROUP	1 ****	UNK
