# created with PyMOL 2.5.0
@<TRIPOS>MOLECULE
MOL
31 35 1                 
SMALL
USER_CHARGES
@<TRIPOS>ATOM
1	  N1	4.607	8.439	23.436	N.3	1	UNK0	0.000	
2	  C1	5.269	7.557	22.439	C.3	1	UNK0	0.000	
3	  C2	4.355	6.381	22.052	C.3	1	UNK0	0.000	
4	  N2	3.852	5.643	23.215	N.pl3	1	UNK0	0.000	
5	  C3	3.526	4.301	23.200	C.2	1	UNK0	0.000	
6	  O1	2.679	3.902	23.984	O.2	1	UNK0	0.000	
7	  C4	3.219	6.514	24.191	C.3	1	UNK0	0.000	
8	  C5	4.133	7.680	24.619	C.3	1	UNK0	0.000	
9	  C6	4.179	3.449	22.234	C.2	1	UNK0	0.000	
10	  C7	3.566	2.375	21.448	C.2	1	UNK0	0.000	
11	  C8	4.642	1.641	20.533	C.2	1	UNK0	0.000	
12	  C9	5.998	2.180	20.702	C.2	1	UNK0	0.000	
13	  S1	6.040	3.537	21.968	S.3	1	UNK0	0.000	
14	 C10	7.020	1.634	19.922	C.2	1	UNK0	0.000	
15	 C11	6.748	0.604	19.016	C.2	1	UNK0	0.000	
16	 C12	5.462	0.073	18.837	C.2	1	UNK0	0.000	
17	  N3	4.387	0.523	19.544	N.pl3	1	UNK0	0.000	
18	  O2	3.205	0.076	19.448	O.2	1	UNK0	0.000	
19	  S2	5.447	9.868	23.811	S.o2	1	UNK0	0.000	
20	  O3	4.728	10.458	24.920	O.2	1	UNK0	0.000	
21	  O4	5.579	10.578	22.549	O.2	1	UNK0	0.000	
22	  N4	8.254	10.348	24.401	N.2	1	UNK0	0.000	
23	 C13	9.499	9.635	25.127	C.2	1	UNK0	0.000	
24	 C14	10.762	10.057	25.323	C.2	1	UNK0	0.000	
25	 C15	11.695	9.305	25.939	C.2	1	UNK0	0.000	
26	 C16	11.435	8.068	26.417	C.2	1	UNK0	0.000	
27	 Cl1	12.702	7.058	27.014	Cl	1	UNK0	0.000	
28	 C17	10.038	7.466	26.387	C.3	1	UNK0	0.000	
29	 C18	9.056	8.293	25.593	C.2	1	UNK0	0.000	
30	 C19	7.645	7.990	25.221	C.2	1	UNK0	0.000	
31	 C20	7.129	9.447	24.402	C.2	1	UNK0	0.000	
@<TRIPOS>BOND
1 1 2 1
2 1 8 1
3 1 19 1
4 2 3 1
5 3 4 1
6 4 5 1
7 4 7 1
8 5 6 2
9 5 9 1
10 7 8 1
11 9 10 2
12 9 13 1
13 10 11 1
14 11 12 1
15 11 17 2
16 12 13 1
17 12 14 2
18 14 15 1
19 15 16 2
20 16 17 1
21 17 18 1
22 19 20 2
23 19 21 2
24 19 31 1
25 22 23 1
26 22 31 2
27 23 24 2
28 23 29 1
29 24 25 1
30 25 26 2
31 26 27 1
32 26 28 1
33 28 29 1
34 29 30 2
35 30 31 1
@<TRIPOS>SUBSTRUCTURE
1	UNK0	1	GROUP	1 ****	UNK
