# created with PyMOL 2.5.0
@<TRIPOS>MOLECULE
MOL
31 35 1                 
SMALL
USER_CHARGES
@<TRIPOS>ATOM
1	  N1	4.071	4.284	23.651	N.3	1	UNK0	0.000	
2	  C1	5.232	4.167	22.713	C.3	1	UNK0	0.000	
3	  C2	4.895	4.527	21.250	C.3	1	UNK0	0.000	
4	  N2	3.749	3.754	20.772	N.pl3	1	UNK0	0.000	
5	  C3	3.879	2.554	20.095	C.2	1	UNK0	0.000	
6	  O1	3.045	1.689	20.301	O.2	1	UNK0	0.000	
7	  C4	2.592	3.936	21.613	C.3	1	UNK0	0.000	
8	  C5	2.888	3.565	23.084	C.3	1	UNK0	0.000	
9	  C6	5.054	2.319	19.301	C.2	1	UNK0	0.000	
10	  C7	5.770	1.039	19.166	C.2	1	UNK0	0.000	
11	  C8	6.977	1.155	18.151	C.2	1	UNK0	0.000	
12	  C9	7.101	2.495	17.549	C.2	1	UNK0	0.000	
13	  S1	5.761	3.633	18.163	S.3	1	UNK0	0.000	
14	 C10	8.129	2.739	16.656	C.2	1	UNK0	0.000	
15	 C11	9.015	1.696	16.316	C.2	1	UNK0	0.000	
16	 C12	8.914	0.409	16.851	C.2	1	UNK0	0.000	
17	  N3	7.963	0.063	17.761	N.pl3	1	UNK0	0.000	
18	  O2	7.796	-1.109	18.229	O.2	1	UNK0	0.000	
19	  S2	3.712	5.867	24.181	S.o2	1	UNK0	0.000	
20	  O3	2.859	5.665	25.351	O.2	1	UNK0	0.000	
21	  O4	3.225	6.566	23.032	O.2	1	UNK0	0.000	
22	  N4	5.906	7.795	24.173	N.2	1	UNK0	0.000	
23	 C13	7.325	8.050	24.892	C.2	1	UNK0	0.000	
24	 C14	8.321	8.896	24.589	C.2	1	UNK0	0.000	
25	 C15	9.546	8.831	25.178	C.2	1	UNK0	0.000	
26	 C16	9.843	7.916	26.121	C.2	1	UNK0	0.000	
27	 Cl1	11.477	7.658	26.601	Cl	1	UNK0	0.000	
28	 C17	8.798	6.986	26.710	C.3	1	UNK0	0.000	
29	 C18	7.517	6.982	25.926	C.2	1	UNK0	0.000	
30	 C19	6.384	6.022	25.969	C.2	1	UNK0	0.000	
31	 C20	5.286	6.626	24.760	C.2	1	UNK0	0.000	
@<TRIPOS>BOND
1 1 2 1
2 1 8 1
3 1 19 1
4 2 3 1
5 3 4 1
6 4 5 1
7 4 7 1
8 5 6 2
9 5 9 1
10 7 8 1
11 9 10 2
12 9 13 1
13 10 11 1
14 11 12 1
15 11 17 2
16 12 13 1
17 12 14 2
18 14 15 1
19 15 16 2
20 16 17 1
21 17 18 1
22 19 20 2
23 19 21 2
24 19 31 1
25 22 23 1
26 22 31 2
27 23 24 2
28 23 29 1
29 24 25 1
30 25 26 2
31 26 27 1
32 26 28 1
33 28 29 1
34 29 30 2
35 30 31 1
@<TRIPOS>SUBSTRUCTURE
1	UNK0	1	GROUP	1 ****	UNK
