# created with PyMOL 2.5.0
@<TRIPOS>MOLECULE
MOL
48 52 1                 
SMALL
USER_CHARGES
@<TRIPOS>ATOM
1	 H10	8.320	3.880	17.180	 H	1	UNK0	0.000	
2	 H07	2.250	4.130	24.820	 H	1	UNK0	0.000	
3	 H17	6.540	5.750	27.480	 H	1	UNK0	0.000	
4	 H08	3.380	2.890	24.290	 H	1	UNK0	0.000	
5	 H13	8.270	10.140	24.460	 H	1	UNK0	0.000	
6	 H09	5.730	0.420	20.900	 H	1	UNK0	0.000	
7	 H11	9.900	2.060	16.620	 H	1	UNK0	0.000	
8	 H15	8.860	8.060	28.490	 H	1	UNK0	0.000	
9	 H03	5.940	4.690	21.640	 H	1	UNK0	0.000	
10	 H12	9.710	-0.210	17.730	 H	1	UNK0	0.000	
11	 H01	5.790	3.550	23.800	 H	1	UNK0	0.000	
12	 H02	6.280	5.220	24.010	 H	1	UNK0	0.000	
13	 H14	10.480	10.110	25.430	 H	1	UNK0	0.000	
14	 H16	9.460	6.680	27.570	 H	1	UNK0	0.000	
15	 H06	2.470	5.290	22.580	 H	1	UNK0	0.000	
16	 H05	1.930	3.630	22.390	 H	1	UNK0	0.000	
17	 H04	4.760	5.910	22.120	 H	1	UNK0	0.000	
18	  N1	4.300	4.730	24.680	N.3	1	UNK0	0.000	
19	  C1	5.440	4.590	23.720	C.3	1	UNK0	0.000	
20	  C2	5.060	4.870	22.250	C.3	1	UNK0	0.000	
21	  N2	3.920	4.050	21.840	N.pl3	1	UNK0	0.000	
22	  C3	4.060	2.820	21.220	C.2	1	UNK0	0.000	
23	  O1	3.250	1.950	21.490	O.2	1	UNK0	0.000	
24	  C4	2.780	4.250	22.700	C.3	1	UNK0	0.000	
25	  C5	3.120	3.960	24.180	C.3	1	UNK0	0.000	
26	  C6	5.220	2.570	20.410	C.2	1	UNK0	0.000	
27	  C7	5.960	1.300	20.320	C.2	1	UNK0	0.000	
28	  C8	7.140	1.390	19.270	C.2	1	UNK0	0.000	
29	  C9	7.220	2.700	18.600	C.2	1	UNK0	0.000	
30	  S1	5.870	3.840	19.190	S.3	1	UNK0	0.000	
31	 C10	8.220	2.920	17.670	C.2	1	UNK0	0.000	
32	 C11	9.120	1.880	17.360	C.2	1	UNK0	0.000	
33	 C12	9.060	0.620	17.960	C.2	1	UNK0	0.000	
34	  N3	8.140	0.300	18.910	N.pl3	1	UNK0	0.000	
35	  O2	8.010	-0.850	19.440	O.2	1	UNK0	0.000	
36	  S2	3.920	6.330	25.140	S.o2	1	UNK0	0.000	
37	  O3	3.100	6.170	26.340	O.2	1	UNK0	0.000	
38	  O4	3.390	6.960	23.970	O.2	1	UNK0	0.000	
39	  N4	6.070	8.300	24.980	N.2	1	UNK0	0.000	
40	 C13	7.500	8.620	25.650	C.2	1	UNK0	0.000	
41	 C14	8.470	9.470	25.280	C.2	1	UNK0	0.000	
42	 C15	9.710	9.460	25.840	C.2	1	UNK0	0.000	
43	 C16	10.050	8.600	26.820	C.2	1	UNK0	0.000	
44	 Cl1	11.700	8.400	27.270	Cl	1	UNK0	0.000	
45	 C17	9.040	7.680	27.480	C.3	1	UNK0	0.000	
46	 C18	7.740	7.610	26.730	C.2	1	UNK0	0.000	
47	 C19	6.630	6.630	26.850	C.2	1	UNK0	0.000	
48	 C20	5.490	7.150	25.640	C.2	1	UNK0	0.000	
@<TRIPOS>BOND
1 18 19 1
2 18 25 1
3 18 36 1
4 11 19 1
5 12 19 1
6 19 20 1
7 9 20 1
8 17 20 1
9 20 21 1
10 21 22 1
11 21 24 1
12 22 23 2
13 22 26 1
14 15 24 1
15 16 24 1
16 24 25 1
17 2 25 1
18 4 25 1
19 26 27 2
20 26 30 1
21 6 27 1
22 27 28 1
23 28 29 1
24 28 34 2
25 29 30 1
26 29 31 2
27 1 31 1
28 31 32 1
29 7 32 1
30 32 33 2
31 10 33 1
32 33 34 1
33 34 35 1
34 36 37 2
35 36 38 2
36 36 48 1
37 39 40 1
38 39 48 2
39 40 41 2
40 40 46 1
41 5 41 1
42 41 42 1
43 13 42 1
44 42 43 2
45 43 44 1
46 43 45 1
47 8 45 1
48 14 45 1
49 45 46 1
50 46 47 2
51 3 47 1
52 47 48 1
@<TRIPOS>SUBSTRUCTURE
1	UNK0	1	GROUP	1 ****	UNK
