# created with PyMOL 2.5.0
@<TRIPOS>MOLECULE
MOL
48 52 1                 
SMALL
USER_CHARGES
@<TRIPOS>ATOM
1	 H10	7.020	-0.020	19.660	 H	1	UNK0	0.000	
2	 H07	4.320	8.220	25.120	 H	1	UNK0	0.000	
3	 H17	6.630	8.100	27.780	 H	1	UNK0	0.000	
4	 H08	5.760	7.160	25.000	 H	1	UNK0	0.000	
5	 H13	11.920	8.010	25.960	 H	1	UNK0	0.000	
6	 H09	6.110	5.610	19.650	 H	1	UNK0	0.000	
7	 H11	7.890	0.150	17.350	 H	1	UNK0	0.000	
8	 H15	9.020	7.370	29.610	 H	1	UNK0	0.000	
9	 H03	6.930	6.540	21.380	 H	1	UNK0	0.000	
10	 H12	7.980	2.400	16.160	 H	1	UNK0	0.000	
11	 H01	7.570	7.740	23.290	 H	1	UNK0	0.000	
12	 H02	7.140	8.980	22.090	 H	1	UNK0	0.000	
13	 H14	12.730	6.820	27.860	 H	1	UNK0	0.000	
14	 H16	8.820	5.870	28.710	 H	1	UNK0	0.000	
15	 H06	3.630	7.490	22.830	 H	1	UNK0	0.000	
16	 H05	3.670	6.190	24.020	 H	1	UNK0	0.000	
17	 H04	5.510	7.570	21.050	 H	1	UNK0	0.000	
18	  N1	5.790	8.820	23.710	N.3	1	UNK0	0.000	
19	  C1	6.750	8.210	22.720	C.3	1	UNK0	0.000	
20	  C2	6.100	7.100	21.850	C.3	1	UNK0	0.000	
21	  N2	5.210	6.190	22.550	N.pl3	1	UNK0	0.000	
22	  C3	5.080	4.840	22.480	C.2	1	UNK0	0.000	
23	  O1	4.440	4.220	23.310	O.2	1	UNK0	0.000	
24	  C4	4.290	6.870	23.470	C.3	1	UNK0	0.000	
25	  C5	5.050	7.770	24.430	C.3	1	UNK0	0.000	
26	  C6	5.720	4.130	21.340	C.2	1	UNK0	0.000	
27	  C7	6.160	4.580	20.030	C.2	1	UNK0	0.000	
28	  C8	6.690	3.380	19.140	C.2	1	UNK0	0.000	
29	  C9	6.610	2.090	19.840	C.2	1	UNK0	0.000	
30	  S1	5.890	2.270	21.530	S.3	1	UNK0	0.000	
31	 C10	7.060	0.950	19.160	C.2	1	UNK0	0.000	
32	 C11	7.550	1.050	17.860	C.2	1	UNK0	0.000	
33	 C12	7.620	2.270	17.160	C.2	1	UNK0	0.000	
34	  N3	7.230	3.450	17.740	N.pl3	1	UNK0	0.000	
35	  O2	7.250	4.580	17.150	O.2	1	UNK0	0.000	
36	  S2	6.570	9.980	24.720	S.o2	1	UNK0	0.000	
37	  O3	5.530	10.330	25.690	O.2	1	UNK0	0.000	
38	  O4	7.170	10.970	23.890	O.2	1	UNK0	0.000	
39	  N4	9.200	8.900	25.370	N.2	1	UNK0	0.000	
40	 C13	9.910	8.000	26.510	C.2	1	UNK0	0.000	
41	 C14	11.220	7.690	26.690	C.2	1	UNK0	0.000	
42	 C15	11.670	7.000	27.770	C.2	1	UNK0	0.000	
43	 C16	10.840	6.580	28.750	C.2	1	UNK0	0.000	
44	 Cl1	11.440	5.800	30.160	Cl	1	UNK0	0.000	
45	 C17	9.330	6.830	28.720	C.3	1	UNK0	0.000	
46	 C18	8.890	7.620	27.500	C.2	1	UNK0	0.000	
47	 C19	7.550	8.170	27.200	C.2	1	UNK0	0.000	
48	 C20	7.800	9.050	25.730	C.2	1	UNK0	0.000	
@<TRIPOS>BOND
1 18 19 1
2 18 25 1
3 18 36 1
4 11 19 1
5 12 19 1
6 19 20 1
7 9 20 1
8 17 20 1
9 20 21 1
10 21 22 1
11 21 24 1
12 22 23 2
13 22 26 1
14 15 24 1
15 16 24 1
16 24 25 1
17 2 25 1
18 4 25 1
19 26 27 2
20 26 30 1
21 6 27 1
22 27 28 1
23 28 29 1
24 28 34 2
25 29 30 1
26 29 31 2
27 1 31 1
28 31 32 1
29 7 32 1
30 32 33 2
31 10 33 1
32 33 34 1
33 34 35 1
34 36 37 2
35 36 38 2
36 36 48 1
37 39 40 1
38 39 48 2
39 40 41 2
40 40 46 1
41 5 41 1
42 41 42 1
43 13 42 1
44 42 43 2
45 43 44 1
46 43 45 1
47 8 45 1
48 14 45 1
49 45 46 1
50 46 47 2
51 3 47 1
52 47 48 1
@<TRIPOS>SUBSTRUCTURE
1	UNK0	1	GROUP	1 ****	UNK
