# created with PyMOL 2.5.0
@<TRIPOS>MOLECULE
MOL
31 35 1                 
SMALL
USER_CHARGES
@<TRIPOS>ATOM
1	  N1	5.261	10.158	19.834	N.3	1	UNK0	0.000	
2	  C1	6.429	9.573	19.089	C.3	1	UNK0	0.000	
3	  C2	5.980	8.764	17.837	C.3	1	UNK0	0.000	
4	  N2	4.927	7.793	18.131	N.pl3	1	UNK0	0.000	
5	  C3	5.288	6.561	18.605	C.2	1	UNK0	0.000	
6	  O1	4.949	6.277	19.745	O.2	1	UNK0	0.000	
7	  C4	3.814	8.428	18.810	C.3	1	UNK0	0.000	
8	  C5	4.224	9.127	20.104	C.3	1	UNK0	0.000	
9	  C6	5.568	5.584	17.592	C.2	1	UNK0	0.000	
10	  C7	5.700	5.724	16.119	C.2	1	UNK0	0.000	
11	  C8	5.765	4.300	15.415	C.2	1	UNK0	0.000	
12	  C9	5.679	3.187	16.363	C.2	1	UNK0	0.000	
13	  S1	5.589	3.799	18.126	S.3	1	UNK0	0.000	
14	 C10	5.632	1.886	15.885	C.2	1	UNK0	0.000	
15	 C11	5.626	1.659	14.487	C.2	1	UNK0	0.000	
16	 C12	5.687	2.701	13.564	C.2	1	UNK0	0.000	
17	  N3	5.787	4.017	13.913	N.pl3	1	UNK0	0.000	
18	  O2	5.921	4.975	13.106	O.2	1	UNK0	0.000	
19	  S2	5.662	11.157	21.148	S.o2	1	UNK0	0.000	
20	  O3	4.423	11.428	21.852	O.2	1	UNK0	0.000	
21	  O4	6.474	12.231	20.618	O.2	1	UNK0	0.000	
22	  N4	7.935	10.599	22.903	N.2	1	UNK0	0.000	
23	 C13	8.412	9.510	23.980	C.2	1	UNK0	0.000	
24	 C14	9.495	9.461	24.772	C.2	1	UNK0	0.000	
25	 C15	9.719	8.472	25.661	C.2	1	UNK0	0.000	
26	 C16	8.826	7.485	25.876	C.2	1	UNK0	0.000	
27	 Cl1	9.037	6.350	27.157	Cl	1	UNK0	0.000	
28	 C17	7.586	7.298	25.006	C.3	1	UNK0	0.000	
29	 C18	7.373	8.434	24.026	C.2	1	UNK0	0.000	
30	 C19	6.254	8.665	23.086	C.2	1	UNK0	0.000	
31	 C20	6.687	10.173	22.319	C.2	1	UNK0	0.000	
@<TRIPOS>BOND
1 1 2 1
2 1 8 1
3 1 19 1
4 2 3 1
5 3 4 1
6 4 5 1
7 4 7 1
8 5 6 2
9 5 9 1
10 7 8 1
11 9 10 2
12 9 13 1
13 10 11 1
14 11 12 1
15 11 17 2
16 12 13 1
17 12 14 2
18 14 15 1
19 15 16 2
20 16 17 1
21 17 18 1
22 19 20 2
23 19 21 2
24 19 31 1
25 22 23 1
26 22 31 2
27 23 24 2
28 23 29 1
29 24 25 1
30 25 26 2
31 26 27 1
32 26 28 1
33 28 29 1
34 29 30 2
35 30 31 1
@<TRIPOS>SUBSTRUCTURE
1	UNK0	1	GROUP	1 ****	UNK
