# created with PyMOL 2.5.0
@<TRIPOS>MOLECULE
MOL
48 52 1                 
SMALL
USER_CHARGES
@<TRIPOS>ATOM
1	 H10	7.940	1.440	17.180	 H	1	UNK0	0.000	
2	 H07	3.760	5.650	24.570	 H	1	UNK0	0.000	
3	 H17	6.150	7.170	25.880	 H	1	UNK0	0.000	
4	 H08	5.290	5.340	23.730	 H	1	UNK0	0.000	
5	 H13	9.720	9.670	22.340	 H	1	UNK0	0.000	
6	 H09	3.180	-0.060	19.950	 H	1	UNK0	0.000	
7	 H11	7.720	-0.570	15.770	 H	1	UNK0	0.000	
8	 H15	8.970	8.160	26.820	 H	1	UNK0	0.000	
9	 H03	4.400	4.380	19.880	 H	1	UNK0	0.000	
10	 H12	5.730	-2.150	16.020	 H	1	UNK0	0.000	
11	 H01	5.570	6.010	21.370	 H	1	UNK0	0.000	
12	 H02	4.210	6.780	20.510	 H	1	UNK0	0.000	
13	 H14	11.560	9.560	23.900	 H	1	UNK0	0.000	
14	 H16	9.450	6.750	25.900	 H	1	UNK0	0.000	
15	 H06	2.590	4.030	23.130	 H	1	UNK0	0.000	
16	 H05	3.980	3.270	23.910	 H	1	UNK0	0.000	
17	 H04	2.880	4.720	20.660	 H	1	UNK0	0.000	
18	  N1	3.890	6.430	22.590	N.3	1	UNK0	0.000	
19	  C1	4.470	6.050	21.270	C.3	1	UNK0	0.000	
20	  C2	3.960	4.660	20.830	C.3	1	UNK0	0.000	
21	  N2	4.140	3.620	21.840	N.pl3	1	UNK0	0.000	
22	  C3	3.950	2.290	21.540	C.2	1	UNK0	0.000	
23	  O1	3.350	1.600	22.340	O.2	1	UNK0	0.000	
24	  C4	3.680	4.020	23.170	C.3	1	UNK0	0.000	
25	  C5	4.210	5.390	23.610	C.3	1	UNK0	0.000	
26	  C6	4.500	1.750	20.310	C.2	1	UNK0	0.000	
27	  C7	4.040	0.520	19.630	C.2	1	UNK0	0.000	
28	  C8	5.000	0.130	18.440	C.2	1	UNK0	0.000	
29	  C9	6.140	1.040	18.280	C.2	1	UNK0	0.000	
30	  S1	6.070	2.420	19.530	S.3	1	UNK0	0.000	
31	 C10	7.090	0.770	17.310	C.2	1	UNK0	0.000	
32	 C11	6.960	-0.380	16.510	C.2	1	UNK0	0.000	
33	 C12	5.890	-1.270	16.640	C.2	1	UNK0	0.000	
34	  N3	4.890	-1.100	17.550	N.pl3	1	UNK0	0.000	
35	  O2	3.830	-1.790	17.600	O.2	1	UNK0	0.000	
36	  S2	4.170	8.050	23.050	S.o2	1	UNK0	0.000	
37	  O3	3.420	8.240	24.300	O.2	1	UNK0	0.000	
38	  O4	3.900	8.840	21.880	O.2	1	UNK0	0.000	
39	  N4	6.990	8.750	22.740	N.2	1	UNK0	0.000	
40	 C13	8.360	8.680	23.570	C.2	1	UNK0	0.000	
41	 C14	9.570	9.170	23.290	C.2	1	UNK0	0.000	
42	 C15	10.610	9.130	24.170	C.2	1	UNK0	0.000	
43	 C16	10.500	8.530	25.380	C.2	1	UNK0	0.000	
44	 Cl1	11.800	8.570	26.510	Cl	1	UNK0	0.000	
45	 C17	9.240	7.810	25.820	C.3	1	UNK0	0.000	
46	 C18	8.080	8.010	24.870	C.2	1	UNK0	0.000	
47	 C19	6.640	7.650	25.040	C.2	1	UNK0	0.000	
48	 C20	5.920	8.180	23.540	C.2	1	UNK0	0.000	
@<TRIPOS>BOND
1 18 19 1
2 18 25 1
3 18 36 1
4 11 19 1
5 12 19 1
6 19 20 1
7 9 20 1
8 17 20 1
9 20 21 1
10 21 22 1
11 21 24 1
12 22 23 2
13 22 26 1
14 15 24 1
15 16 24 1
16 24 25 1
17 2 25 1
18 4 25 1
19 26 27 2
20 26 30 1
21 6 27 1
22 27 28 1
23 28 29 1
24 28 34 2
25 29 30 1
26 29 31 2
27 1 31 1
28 31 32 1
29 7 32 1
30 32 33 2
31 10 33 1
32 33 34 1
33 34 35 1
34 36 37 2
35 36 38 2
36 36 48 1
37 39 40 1
38 39 48 2
39 40 41 2
40 40 46 1
41 5 41 1
42 41 42 1
43 13 42 1
44 42 43 2
45 43 44 1
46 43 45 1
47 8 45 1
48 14 45 1
49 45 46 1
50 46 47 2
51 3 47 1
52 47 48 1
@<TRIPOS>SUBSTRUCTURE
1	UNK0	1	GROUP	1 ****	UNK
