# created with PyMOL 2.5.0
@<TRIPOS>MOLECULE
MOL
31 35 1                 
SMALL
USER_CHARGES
@<TRIPOS>ATOM
1	  N1	1.913	8.360	20.698	N.3	1	UNK0	0.000	
2	  C1	2.991	7.816	19.797	C.3	1	UNK0	0.000	
3	  C2	2.694	6.395	19.277	C.3	1	UNK0	0.000	
4	  N2	2.341	5.493	20.361	N.pl3	1	UNK0	0.000	
5	  C3	3.308	4.954	21.189	C.2	1	UNK0	0.000	
6	  O1	3.113	4.991	22.398	O.2	1	UNK0	0.000	
7	  C4	1.148	5.972	21.029	C.3	1	UNK0	0.000	
8	  C5	1.374	7.349	21.677	C.3	1	UNK0	0.000	
9	  C6	4.541	4.503	20.602	C.2	1	UNK0	0.000	
10	  C7	4.843	3.970	19.261	C.2	1	UNK0	0.000	
11	  C8	6.360	3.562	19.129	C.2	1	UNK0	0.000	
12	  C9	7.122	3.770	20.363	C.2	1	UNK0	0.000	
13	  S1	6.048	4.484	21.709	S.3	1	UNK0	0.000	
14	 C10	8.477	3.426	20.370	C.2	1	UNK0	0.000	
15	 C11	9.077	2.892	19.224	C.2	1	UNK0	0.000	
16	 C12	8.373	2.693	18.030	C.2	1	UNK0	0.000	
17	  N3	7.041	2.990	17.902	N.pl3	1	UNK0	0.000	
18	  O2	6.365	2.849	16.840	O.2	1	UNK0	0.000	
19	  S2	2.337	9.837	21.460	S.o2	1	UNK0	0.000	
20	  O3	1.332	10.060	22.465	O.2	1	UNK0	0.000	
21	  O4	2.628	10.787	20.397	O.2	1	UNK0	0.000	
22	  N4	5.236	9.594	21.788	N.2	1	UNK0	0.000	
23	 C13	6.292	8.931	22.794	C.2	1	UNK0	0.000	
24	 C14	7.633	8.918	22.769	C.2	1	UNK0	0.000	
25	 C15	8.387	8.422	23.776	C.2	1	UNK0	0.000	
26	 C16	7.840	7.868	24.876	C.2	1	UNK0	0.000	
27	 Cl1	8.811	7.356	26.195	Cl	1	UNK0	0.000	
28	 C17	6.330	7.705	25.045	C.3	1	UNK0	0.000	
29	 C18	5.534	8.392	23.972	C.2	1	UNK0	0.000	
30	 C19	4.072	8.647	23.872	C.2	1	UNK0	0.000	
31	 C20	3.911	9.494	22.350	C.2	1	UNK0	0.000	
@<TRIPOS>BOND
1 1 2 1
2 1 8 1
3 1 19 1
4 2 3 1
5 3 4 1
6 4 5 1
7 4 7 1
8 5 6 2
9 5 9 1
10 7 8 1
11 9 10 2
12 9 13 1
13 10 11 1
14 11 12 1
15 11 17 2
16 12 13 1
17 12 14 2
18 14 15 1
19 15 16 2
20 16 17 1
21 17 18 1
22 19 20 2
23 19 21 2
24 19 31 1
25 22 23 1
26 22 31 2
27 23 24 2
28 23 29 1
29 24 25 1
30 25 26 2
31 26 27 1
32 26 28 1
33 28 29 1
34 29 30 2
35 30 31 1
@<TRIPOS>SUBSTRUCTURE
1	UNK0	1	GROUP	1 ****	UNK
