# created with PyMOL 2.5.0
@<TRIPOS>MOLECULE
MOL
48 52 1                 
SMALL
USER_CHARGES
@<TRIPOS>ATOM
1	 H10	-2.520	8.780	22.750	 H	1	UNK0	0.000	
2	 H07	7.620	6.930	24.260	 H	1	UNK0	0.000	
3	 H17	7.330	7.840	26.770	 H	1	UNK0	0.000	
4	 H08	6.850	7.370	22.720	 H	1	UNK0	0.000	
5	 H13	12.870	7.800	27.620	 H	1	UNK0	0.000	
6	 H09	2.500	10.200	25.060	 H	1	UNK0	0.000	
7	 H11	-3.370	11.030	23.280	 H	1	UNK0	0.000	
8	 H15	8.730	7.260	29.690	 H	1	UNK0	0.000	
9	 H03	3.840	9.680	22.980	 H	1	UNK0	0.000	
10	 H12	-1.900	12.740	24.470	 H	1	UNK0	0.000	
11	 H01	6.150	9.330	22.170	 H	1	UNK0	0.000	
12	 H02	6.110	10.720	23.280	 H	1	UNK0	0.000	
13	 H14	12.690	6.310	29.520	 H	1	UNK0	0.000	
14	 H16	8.700	5.830	28.620	 H	1	UNK0	0.000	
15	 H06	5.460	7.080	25.430	 H	1	UNK0	0.000	
16	 H05	5.290	5.990	24.060	 H	1	UNK0	0.000	
17	 H04	4.430	9.750	24.650	 H	1	UNK0	0.000	
18	  N1	6.970	8.950	24.080	N.3	1	UNK0	0.000	
19	  C1	6.000	9.640	23.210	C.3	1	UNK0	0.000	
20	  C2	4.580	9.270	23.680	C.3	1	UNK0	0.000	
21	  N2	4.310	7.840	23.900	N.pl3	1	UNK0	0.000	
22	  C3	3.060	7.340	24.170	C.2	1	UNK0	0.000	
23	  O1	2.930	6.190	24.580	O.2	1	UNK0	0.000	
24	  C4	5.450	7.030	24.340	C.3	1	UNK0	0.000	
25	  C5	6.810	7.510	23.800	C.3	1	UNK0	0.000	
26	  C6	1.930	8.230	24.070	C.2	1	UNK0	0.000	
27	  C7	1.740	9.610	24.550	C.2	1	UNK0	0.000	
28	  C8	0.280	10.140	24.250	C.2	1	UNK0	0.000	
29	  C9	-0.570	9.140	23.580	C.2	1	UNK0	0.000	
30	  S1	0.360	7.540	23.320	S.3	1	UNK0	0.000	
31	 C10	-1.870	9.490	23.250	C.2	1	UNK0	0.000	
32	 C11	-2.350	10.780	23.560	C.2	1	UNK0	0.000	
33	 C12	-1.560	11.740	24.200	C.2	1	UNK0	0.000	
34	  N3	-0.270	11.510	24.570	N.pl3	1	UNK0	0.000	
35	  O2	0.480	12.320	25.210	O.2	1	UNK0	0.000	
36	  S2	8.570	9.520	24.000	S.o2	1	UNK0	0.000	
37	  O3	8.470	10.960	24.130	O.2	1	UNK0	0.000	
38	  O4	9.150	8.850	22.850	O.2	1	UNK0	0.000	
39	  N4	10.700	8.790	25.910	N.2	1	UNK0	0.000	
40	 C13	10.820	7.980	27.300	C.2	1	UNK0	0.000	
41	 C14	11.880	7.530	27.980	C.2	1	UNK0	0.000	
42	 C15	11.780	6.670	29.040	C.2	1	UNK0	0.000	
43	 C16	10.590	6.230	29.490	C.2	1	UNK0	0.000	
44	 Cl1	10.430	4.990	30.680	Cl	1	UNK0	0.000	
45	 C17	9.280	6.710	28.920	C.3	1	UNK0	0.000	
46	 C18	9.440	7.580	27.710	C.2	1	UNK0	0.000	
47	 C19	8.390	8.030	26.760	C.2	1	UNK0	0.000	
48	 C20	9.310	8.860	25.530	C.2	1	UNK0	0.000	
@<TRIPOS>BOND
1 18 19 1
2 18 25 1
3 18 36 1
4 11 19 1
5 12 19 1
6 19 20 1
7 9 20 1
8 17 20 1
9 20 21 1
10 21 22 1
11 21 24 1
12 22 23 2
13 22 26 1
14 15 24 1
15 16 24 1
16 24 25 1
17 2 25 1
18 4 25 1
19 26 27 2
20 26 30 1
21 6 27 1
22 27 28 1
23 28 29 1
24 28 34 2
25 29 30 1
26 29 31 2
27 1 31 1
28 31 32 1
29 7 32 1
30 32 33 2
31 10 33 1
32 33 34 1
33 34 35 1
34 36 37 2
35 36 38 2
36 36 48 1
37 39 40 1
38 39 48 2
39 40 41 2
40 40 46 1
41 5 41 1
42 41 42 1
43 13 42 1
44 42 43 2
45 43 44 1
46 43 45 1
47 8 45 1
48 14 45 1
49 45 46 1
50 46 47 2
51 3 47 1
52 47 48 1
@<TRIPOS>SUBSTRUCTURE
1	UNK0	1	GROUP	1 ****	UNK
