# created with PyMOL 2.5.0
@<TRIPOS>MOLECULE
MOL
48 52 1                 
SMALL
USER_CHARGES
@<TRIPOS>ATOM
1	 H10	5.070	3.740	15.200	 H	1	UNK0	0.000	
2	 H07	4.400	8.650	23.570	 H	1	UNK0	0.000	
3	 H17	6.760	8.340	25.350	 H	1	UNK0	0.000	
4	 H08	5.840	7.620	23.350	 H	1	UNK0	0.000	
5	 H13	11.610	11.110	24.870	 H	1	UNK0	0.000	
6	 H09	5.810	2.290	20.660	 H	1	UNK0	0.000	
7	 H11	5.740	1.460	14.520	 H	1	UNK0	0.000	
8	 H15	8.980	8.610	27.770	 H	1	UNK0	0.000	
9	 H03	6.470	6.500	19.730	 H	1	UNK0	0.000	
10	 H12	6.470	-0.250	16.260	 H	1	UNK0	0.000	
11	 H01	7.340	7.880	21.550	 H	1	UNK0	0.000	
12	 H02	6.940	8.960	20.200	 H	1	UNK0	0.000	
13	 H14	12.690	9.820	26.580	 H	1	UNK0	0.000	
14	 H16	9.400	7.300	26.650	 H	1	UNK0	0.000	
15	 H06	3.350	7.570	21.590	 H	1	UNK0	0.000	
16	 H05	3.700	6.420	22.870	 H	1	UNK0	0.000	
17	 H04	5.080	7.570	19.500	 H	1	UNK0	0.000	
18	  N1	5.620	9.050	21.870	N.3	1	UNK0	0.000	
19	  C1	6.520	8.290	20.960	C.3	1	UNK0	0.000	
20	  C2	5.750	7.140	20.250	C.3	1	UNK0	0.000	
21	  N2	4.910	6.320	21.130	N.pl3	1	UNK0	0.000	
22	  C3	4.650	4.970	20.990	C.2	1	UNK0	0.000	
23	  O1	4.020	4.390	21.860	O.2	1	UNK0	0.000	
24	  C4	4.160	7.070	22.130	C.3	1	UNK0	0.000	
25	  C5	5.020	8.110	22.840	C.3	1	UNK0	0.000	
26	  C6	5.120	4.280	19.830	C.2	1	UNK0	0.000	
27	  C7	5.630	2.890	19.780	C.2	1	UNK0	0.000	
28	  C8	5.790	2.380	18.290	C.2	1	UNK0	0.000	
29	  C9	5.380	3.380	17.300	C.2	1	UNK0	0.000	
30	  S1	4.840	4.970	18.110	S.3	1	UNK0	0.000	
31	 C10	5.390	3.020	15.950	C.2	1	UNK0	0.000	
32	 C11	5.760	1.730	15.580	C.2	1	UNK0	0.000	
33	 C12	6.160	0.750	16.510	C.2	1	UNK0	0.000	
34	  N3	6.220	1.000	17.850	N.pl3	1	UNK0	0.000	
35	  O2	6.630	0.170	18.720	O.2	1	UNK0	0.000	
36	  S2	6.240	10.480	22.560	S.o2	1	UNK0	0.000	
37	  O3	5.160	10.980	23.390	O.2	1	UNK0	0.000	
38	  O4	6.760	11.280	21.470	O.2	1	UNK0	0.000	
39	  N4	8.920	10.740	23.760	N.2	1	UNK0	0.000	
40	 C13	9.770	10.150	24.990	C.2	1	UNK0	0.000	
41	 C14	11.030	10.360	25.400	C.2	1	UNK0	0.000	
42	 C15	11.650	9.660	26.370	C.2	1	UNK0	0.000	
43	 C16	10.990	8.680	27.060	C.2	1	UNK0	0.000	
44	 Cl1	11.850	7.640	28.130	Cl	1	UNK0	0.000	
45	 C17	9.530	8.370	26.840	C.3	1	UNK0	0.000	
46	 C18	8.910	9.140	25.690	C.2	1	UNK0	0.000	
47	 C19	7.570	8.990	25.070	C.2	1	UNK0	0.000	
48	 C20	7.640	10.100	23.710	C.2	1	UNK0	0.000	
@<TRIPOS>BOND
1 18 19 1
2 18 25 1
3 18 36 1
4 11 19 1
5 12 19 1
6 19 20 1
7 9 20 1
8 17 20 1
9 20 21 1
10 21 22 1
11 21 24 1
12 22 23 2
13 22 26 1
14 15 24 1
15 16 24 1
16 24 25 1
17 2 25 1
18 4 25 1
19 26 27 2
20 26 30 1
21 6 27 1
22 27 28 1
23 28 29 1
24 28 34 2
25 29 30 1
26 29 31 2
27 1 31 1
28 31 32 1
29 7 32 1
30 32 33 2
31 10 33 1
32 33 34 1
33 34 35 1
34 36 37 2
35 36 38 2
36 36 48 1
37 39 40 1
38 39 48 2
39 40 41 2
40 40 46 1
41 5 41 1
42 41 42 1
43 13 42 1
44 42 43 2
45 43 44 1
46 43 45 1
47 8 45 1
48 14 45 1
49 45 46 1
50 46 47 2
51 3 47 1
52 47 48 1
@<TRIPOS>SUBSTRUCTURE
1	UNK0	1	GROUP	1 ****	UNK
