# created with PyMOL 2.5.0
@<TRIPOS>MOLECULE
MOL
48 52 1                 
SMALL
USER_CHARGES
@<TRIPOS>ATOM
1	 H10	5.030	-0.530	16.990	 H	1	UNK0	0.000	
2	 H07	3.920	5.200	24.840	 H	1	UNK0	0.000	
3	 H17	8.130	5.500	27.290	 H	1	UNK0	0.000	
4	 H08	4.460	3.780	23.970	 H	1	UNK0	0.000	
5	 H13	11.590	9.000	24.600	 H	1	UNK0	0.000	
6	 H09	5.460	4.930	18.590	 H	1	UNK0	0.000	
7	 H11	5.960	0.060	14.780	 H	1	UNK0	0.000	
8	 H15	10.790	6.950	28.660	 H	1	UNK0	0.000	
9	 H03	6.470	4.850	20.660	 H	1	UNK0	0.000	
10	 H12	6.650	2.450	14.250	 H	1	UNK0	0.000	
11	 H01	6.760	3.810	22.840	 H	1	UNK0	0.000	
12	 H02	7.670	5.310	22.830	 H	1	UNK0	0.000	
13	 H14	13.480	8.450	25.990	 H	1	UNK0	0.000	
14	 H16	11.210	5.470	27.810	 H	1	UNK0	0.000	
15	 H06	3.900	6.490	22.630	 H	1	UNK0	0.000	
16	 H05	2.780	5.140	22.650	 H	1	UNK0	0.000	
17	 H04	5.950	6.380	21.380	 H	1	UNK0	0.000	
18	  N1	5.920	5.280	24.070	N.3	1	UNK0	0.000	
19	  C1	6.660	4.900	22.820	C.3	1	UNK0	0.000	
20	  C2	5.930	5.300	21.510	C.3	1	UNK0	0.000	
21	  N2	4.530	4.900	21.500	N.pl3	1	UNK0	0.000	
22	  C3	4.100	3.680	21.020	C.2	1	UNK0	0.000	
23	  O1	3.220	3.100	21.640	O.2	1	UNK0	0.000	
24	  C4	3.830	5.400	22.680	C.3	1	UNK0	0.000	
25	  C5	4.490	4.880	23.970	C.3	1	UNK0	0.000	
26	  C6	4.660	3.170	19.790	C.2	1	UNK0	0.000	
27	  C7	5.280	3.860	18.640	C.2	1	UNK0	0.000	
28	  C8	5.570	2.860	17.450	C.2	1	UNK0	0.000	
29	  C9	5.160	1.480	17.760	C.2	1	UNK0	0.000	
30	  S1	4.450	1.340	19.470	S.3	1	UNK0	0.000	
31	 C10	5.330	0.500	16.780	C.2	1	UNK0	0.000	
32	 C11	5.840	0.840	15.530	C.2	1	UNK0	0.000	
33	 C12	6.230	2.150	15.200	C.2	1	UNK0	0.000	
34	  N3	6.140	3.190	16.080	N.pl3	1	UNK0	0.000	
35	  O2	6.500	4.380	15.840	O.2	1	UNK0	0.000	
36	  S2	6.170	6.860	24.640	S.o2	1	UNK0	0.000	
37	  O3	5.310	6.980	25.800	O.2	1	UNK0	0.000	
38	  O4	5.970	7.720	23.490	O.2	1	UNK0	0.000	
39	  N4	8.910	7.860	24.690	N.2	1	UNK0	0.000	
40	 C13	10.240	7.760	25.590	C.2	1	UNK0	0.000	
41	 C14	11.450	8.320	25.440	C.2	1	UNK0	0.000	
42	 C15	12.500	8.040	26.240	C.2	1	UNK0	0.000	
43	 C16	12.400	7.170	27.270	C.2	1	UNK0	0.000	
44	 Cl1	13.810	6.590	28.080	Cl	1	UNK0	0.000	
45	 C17	11.080	6.550	27.690	C.3	1	UNK0	0.000	
46	 C18	9.970	6.800	26.700	C.2	1	UNK0	0.000	
47	 C19	8.600	6.210	26.630	C.2	1	UNK0	0.000	
48	 C20	7.910	6.990	25.220	C.2	1	UNK0	0.000	
@<TRIPOS>BOND
1 18 19 1
2 18 25 1
3 18 36 1
4 11 19 1
5 12 19 1
6 19 20 1
7 9 20 1
8 17 20 1
9 20 21 1
10 21 22 1
11 21 24 1
12 22 23 2
13 22 26 1
14 15 24 1
15 16 24 1
16 24 25 1
17 2 25 1
18 4 25 1
19 26 27 2
20 26 30 1
21 6 27 1
22 27 28 1
23 28 29 1
24 28 34 2
25 29 30 1
26 29 31 2
27 1 31 1
28 31 32 1
29 7 32 1
30 32 33 2
31 10 33 1
32 33 34 1
33 34 35 1
34 36 37 2
35 36 38 2
36 36 48 1
37 39 40 1
38 39 48 2
39 40 41 2
40 40 46 1
41 5 41 1
42 41 42 1
43 13 42 1
44 42 43 2
45 43 44 1
46 43 45 1
47 8 45 1
48 14 45 1
49 45 46 1
50 46 47 2
51 3 47 1
52 47 48 1
@<TRIPOS>SUBSTRUCTURE
1	UNK0	1	GROUP	1 ****	UNK
