# created with PyMOL 2.5.0
@<TRIPOS>MOLECULE
MOL
31 35 1                 
SMALL
USER_CHARGES
@<TRIPOS>ATOM
1	  N1	3.439	5.546	21.708	N.3	1	UNK0	0.000	
2	  C1	4.032	5.198	20.386	C.3	1	UNK0	0.000	
3	  C2	3.548	3.807	19.920	C.3	1	UNK0	0.000	
4	  N2	3.741	2.754	20.914	N.pl3	1	UNK0	0.000	
5	  C3	3.575	1.426	20.592	C.2	1	UNK0	0.000	
6	  O1	2.983	0.713	21.377	O.2	1	UNK0	0.000	
7	  C4	3.267	3.124	22.248	C.3	1	UNK0	0.000	
8	  C5	3.772	4.495	22.713	C.3	1	UNK0	0.000	
9	  C6	4.140	0.915	19.356	C.2	1	UNK0	0.000	
10	  C7	3.705	-0.311	18.654	C.2	1	UNK0	0.000	
11	  C8	4.677	-0.665	17.463	C.2	1	UNK0	0.000	
12	  C9	5.802	0.266	17.324	C.2	1	UNK0	0.000	
13	  S1	5.702	1.624	18.595	S.3	1	UNK0	0.000	
14	 C10	6.761	0.028	16.354	C.2	1	UNK0	0.000	
15	 C11	6.655	-1.111	15.535	C.2	1	UNK0	0.000	
16	 C12	5.600	-2.021	15.645	C.2	1	UNK0	0.000	
17	  N3	4.592	-1.882	16.552	N.pl3	1	UNK0	0.000	
18	  O2	3.544	-2.591	16.586	O.2	1	UNK0	0.000	
19	  S2	3.689	7.163	22.196	S.o2	1	UNK0	0.000	
20	  O3	2.930	7.320	23.445	O.2	1	UNK0	0.000	
21	  O4	3.412	7.967	21.038	O.2	1	UNK0	0.000	
22	  N4	6.499	7.916	21.912	N.2	1	UNK0	0.000	
23	 C13	7.865	7.855	22.748	C.2	1	UNK0	0.000	
24	 C14	9.068	8.370	22.483	C.2	1	UNK0	0.000	
25	 C15	10.104	8.334	23.367	C.2	1	UNK0	0.000	
26	 C16	9.999	7.712	24.567	C.2	1	UNK0	0.000	
27	 Cl1	11.292	7.756	25.704	Cl	1	UNK0	0.000	
28	 C17	8.749	6.964	24.989	C.3	1	UNK0	0.000	
29	 C18	7.590	7.160	24.036	C.2	1	UNK0	0.000	
30	 C19	6.156	6.773	24.192	C.2	1	UNK0	0.000	
31	 C20	5.434	7.315	22.697	C.2	1	UNK0	0.000	
@<TRIPOS>BOND
1 1 2 1
2 1 8 1
3 1 19 1
4 2 3 1
5 3 4 1
6 4 5 1
7 4 7 1
8 5 6 2
9 5 9 1
10 7 8 1
11 9 10 2
12 9 13 1
13 10 11 1
14 11 12 1
15 11 17 2
16 12 13 1
17 12 14 2
18 14 15 1
19 15 16 2
20 16 17 1
21 17 18 1
22 19 20 2
23 19 21 2
24 19 31 1
25 22 23 1
26 22 31 2
27 23 24 2
28 23 29 1
29 24 25 1
30 25 26 2
31 26 27 1
32 26 28 1
33 28 29 1
34 29 30 2
35 30 31 1
@<TRIPOS>SUBSTRUCTURE
1	UNK0	1	GROUP	1 ****	UNK
