# created with PyMOL 2.5.0
@<TRIPOS>MOLECULE
MOL
31 35 1                 
SMALL
USER_CHARGES
@<TRIPOS>ATOM
1	  N1	5.190	8.362	21.416	N.3	1	UNK0	0.000	
2	  C1	6.090	7.602	20.506	C.3	1	UNK0	0.000	
3	  C2	5.310	6.478	19.764	C.3	1	UNK0	0.000	
4	  N2	4.443	5.658	20.617	N.pl3	1	UNK0	0.000	
5	  C3	4.162	4.316	20.449	C.2	1	UNK0	0.000	
6	  O1	3.509	3.732	21.299	O.2	1	UNK0	0.000	
7	  C4	3.692	6.404	21.619	C.3	1	UNK0	0.000	
8	  C5	4.559	7.416	22.360	C.3	1	UNK0	0.000	
9	  C6	4.637	3.638	19.284	C.2	1	UNK0	0.000	
10	  C7	5.123	2.240	19.217	C.2	1	UNK0	0.000	
11	  C8	5.296	1.753	17.720	C.2	1	UNK0	0.000	
12	  C9	4.918	2.778	16.742	C.2	1	UNK0	0.000	
13	  S1	4.394	4.363	17.573	S.3	1	UNK0	0.000	
14	 C10	4.942	2.441	15.386	C.2	1	UNK0	0.000	
15	 C11	5.295	1.152	14.999	C.2	1	UNK0	0.000	
16	 C12	5.664	0.149	15.917	C.2	1	UNK0	0.000	
17	  N3	5.708	0.374	17.262	N.pl3	1	UNK0	0.000	
18	  O2	6.091	-0.478	18.123	O.2	1	UNK0	0.000	
19	  S2	5.825	9.768	22.140	S.o2	1	UNK0	0.000	
20	  O3	4.741	10.273	22.963	O.2	1	UNK0	0.000	
21	  O4	6.375	10.578	21.072	O.2	1	UNK0	0.000	
22	  N4	8.491	9.959	23.383	N.2	1	UNK0	0.000	
23	 C13	9.312	9.332	24.615	C.2	1	UNK0	0.000	
24	 C14	10.569	9.513	25.047	C.2	1	UNK0	0.000	
25	 C15	11.162	8.785	26.013	C.2	1	UNK0	0.000	
26	 C16	10.475	7.805	26.676	C.2	1	UNK0	0.000	
27	 Cl1	11.300	6.731	27.740	Cl	1	UNK0	0.000	
28	 C17	9.013	7.525	26.429	C.3	1	UNK0	0.000	
29	 C18	8.424	8.326	25.284	C.2	1	UNK0	0.000	
30	 C19	7.091	8.211	24.642	C.2	1	UNK0	0.000	
31	 C20	7.200	9.343	23.303	C.2	1	UNK0	0.000	
@<TRIPOS>BOND
1 1 2 1
2 1 8 1
3 1 19 1
4 2 3 1
5 3 4 1
6 4 5 1
7 4 7 1
8 5 6 2
9 5 9 1
10 7 8 1
11 9 10 2
12 9 13 1
13 10 11 1
14 11 12 1
15 11 17 2
16 12 13 1
17 12 14 2
18 14 15 1
19 15 16 2
20 16 17 1
21 17 18 1
22 19 20 2
23 19 21 2
24 19 31 1
25 22 23 1
26 22 31 2
27 23 24 2
28 23 29 1
29 24 25 1
30 25 26 2
31 26 27 1
32 26 28 1
33 28 29 1
34 29 30 2
35 30 31 1
@<TRIPOS>SUBSTRUCTURE
1	UNK0	1	GROUP	1 ****	UNK
