# created with PyMOL 2.5.0
@<TRIPOS>MOLECULE
MOL
31 35 1                 
SMALL
USER_CHARGES
@<TRIPOS>ATOM
1	  N1	5.979	8.177	22.568	N.3	1	UNK0	0.000	
2	  C1	6.947	7.618	21.556	C.3	1	UNK0	0.000	
3	  C2	6.312	6.536	20.642	C.3	1	UNK0	0.000	
4	  N2	5.432	5.588	21.304	N.pl3	1	UNK0	0.000	
5	  C3	5.318	4.241	21.180	C.2	1	UNK0	0.000	
6	  O1	4.684	3.581	21.984	O.2	1	UNK0	0.000	
7	  C4	4.502	6.220	22.248	C.3	1	UNK0	0.000	
8	  C5	5.250	7.091	23.244	C.3	1	UNK0	0.000	
9	  C6	5.968	3.584	20.014	C.2	1	UNK0	0.000	
10	  C7	6.404	4.091	18.724	C.2	1	UNK0	0.000	
11	  C8	6.950	2.933	17.788	C.2	1	UNK0	0.000	
12	  C9	6.884	1.615	18.436	C.2	1	UNK0	0.000	
13	  S1	6.160	1.720	20.131	S.3	1	UNK0	0.000	
14	 C10	7.349	0.509	17.713	C.2	1	UNK0	0.000	
15	 C11	7.839	0.666	16.419	C.2	1	UNK0	0.000	
16	 C12	7.896	1.913	15.767	C.2	1	UNK0	0.000	
17	  N3	7.491	3.065	16.393	N.pl3	1	UNK0	0.000	
18	  O2	7.498	4.217	15.848	O.2	1	UNK0	0.000	
19	  S2	6.744	9.305	23.624	S.o2	1	UNK0	0.000	
20	  O3	5.698	9.605	24.605	O.2	1	UNK0	0.000	
21	  O4	7.333	10.335	22.835	O.2	1	UNK0	0.000	
22	  N4	9.385	8.232	24.236	N.2	1	UNK0	0.000	
23	 C13	10.104	7.296	25.341	C.2	1	UNK0	0.000	
24	 C14	11.418	6.995	25.511	C.2	1	UNK0	0.000	
25	 C15	11.875	6.268	26.563	C.2	1	UNK0	0.000	
26	 C16	11.048	5.800	27.524	C.2	1	UNK0	0.000	
27	 Cl1	11.656	4.972	28.904	Cl	1	UNK0	0.000	
28	 C17	9.535	6.033	27.502	C.3	1	UNK0	0.000	
29	 C18	9.088	6.865	26.313	C.2	1	UNK0	0.000	
30	 C19	7.742	7.411	26.032	C.2	1	UNK0	0.000	
31	 C20	7.983	8.351	24.599	C.2	1	UNK0	0.000	
@<TRIPOS>BOND
1 1 2 1
2 1 8 1
3 1 19 1
4 2 3 1
5 3 4 1
6 4 5 1
7 4 7 1
8 5 6 2
9 5 9 1
10 7 8 1
11 9 10 2
12 9 13 1
13 10 11 1
14 11 12 1
15 11 17 2
16 12 13 1
17 12 14 2
18 14 15 1
19 15 16 2
20 16 17 1
21 17 18 1
22 19 20 2
23 19 21 2
24 19 31 1
25 22 23 1
26 22 31 2
27 23 24 2
28 23 29 1
29 24 25 1
30 25 26 2
31 26 27 1
32 26 28 1
33 28 29 1
34 29 30 2
35 30 31 1
@<TRIPOS>SUBSTRUCTURE
1	UNK0	1	GROUP	1 ****	UNK
