ZINC00538264
 OpenBabel12162120283D

 60 64  0  0  0  0  0  0  0  0999 V2000
    9.2320   -6.5320    2.1570 C   0  0  0  0  0  0  0  0  0  0  0  0
    8.0180   -5.6790    1.8950 C   0  0  0  0  0  3  0  0  0  0  0  0
    8.1200   -4.5360    1.1270 C   0  0  0  0  0  0  0  0  0  0  0  0
    6.9700   -3.7740    0.9090 C   0  0  0  0  0  0  0  0  0  0  0  0
    5.8220   -4.1700    1.4500 N   0  0  0  0  0  0  0  0  0  0  0  0
    5.7650   -5.2760    2.1760 C   0  0  0  0  0  0  0  0  0  0  0  0
    6.8400   -6.0180    2.3990 N   0  0  0  0  0  0  0  0  0  0  0  0
    6.7250   -7.2300    3.2140 C   0  0  0  0  0  0  0  0  0  0  0  0
    4.5540   -5.6640    2.7210 N   0  0  0  0  0  0  0  0  0  0  0  0
    7.0260   -2.6190    0.1450 N   0  0  0  0  0  0  0  0  0  0  0  0
    5.8490   -1.9390   -0.1810 C   0  0  0  0  0  0  0  0  0  0  0  0
    5.8400   -0.5430   -0.1990 C   0  0  0  0  0  0  0  0  0  0  0  0
    4.7030    0.1440   -0.5140 C   0  0  0  0  0  0  0  0  0  0  0  0
    3.5360   -0.5550   -0.8210 C   0  0  0  0  0  0  0  0  0  0  0  0
    2.2830    0.1250   -1.1670 C   0  0  0  0  0  0  0  0  0  0  0  0
    2.2040    1.5180   -1.2050 C   0  0  0  0  0  3  0  0  0  0  0  0
    1.0260    2.1260   -1.5290 C   0  0  0  0  0  0  0  0  0  0  0  0
   -0.1070    1.3660   -1.8260 C   0  0  0  0  0  0  0  0  0  0  0  0
   -0.0560   -0.0130   -1.7960 C   0  0  0  0  0  0  0  0  0  0  0  0
    1.1440   -0.6600   -1.4650 C   0  0  0  0  0  0  0  0  0  0  0  0
    1.2000   -2.0010   -1.4330 N   0  0  0  0  0  0  0  0  0  0  0  0
    2.2900   -2.6710   -1.1320 C   0  0  0  0  0  0  0  0  0  0  0  0
    3.5340   -1.9690   -0.8050 C   0  0  0  0  0  0  0  0  0  0  0  0
    4.7050   -2.6550   -0.4810 C   0  0  0  0  0  0  0  0  0  0  0  0
    2.2590   -4.1490   -1.1230 C   0  0  0  0  0  0  0  0  0  0  0  0
    1.8660   -4.8480   -2.2660 C   0  0  0  0  0  0  0  0  0  0  0  0
    1.8440   -6.2260   -2.2550 C   0  0  0  0  0  0  0  0  0  0  0  0
    2.2030   -6.9200   -1.1040 C   0  0  0  0  0  0  0  0  0  0  0  0
    2.5900   -6.2260    0.0380 C   0  0  0  0  0  0  0  0  0  0  0  0
    2.6180   -4.8490    0.0320 C   0  0  0  0  0  0  0  0  0  0  0  0
    2.1740   -8.3130   -1.0950 N   0  0  0  0  0  0  0  0  0  0  0  0
   -0.0150   -2.7550   -1.7500 C   0  0  0  0  0  0  0  0  0  0  0  0
   -1.3010    2.0060   -2.1620 N   0  0  0  0  0  0  0  0  0  0  0  0
    9.6540   -6.2750    3.1290 H   0  0  0  0  0  0  0  0  0  0  0  0
    8.9460   -7.5840    2.1520 H   0  0  0  0  0  0  0  0  0  0  0  0
    9.9760   -6.3540    1.3810 H   0  0  0  0  0  0  0  0  0  0  0  0
    9.0690   -4.2380    0.7040 H   0  0  0  0  0  0  0  0  0  0  0  0
    6.9630   -6.9940    4.2520 H   0  0  0  0  0  0  0  0  0  0  0  0
    5.7070   -7.6140    3.1530 H   0  0  0  0  0  0  0  0  0  0  0  0
    7.4210   -7.9830    2.8450 H   0  0  0  0  0  0  0  0  0  0  0  0
    4.5130   -6.4230    3.3240 H   0  0  0  0  0  0  0  0  0  0  0  0
    3.7440   -5.1760    2.5000 H   0  0  0  0  0  0  0  0  0  0  0  0
    7.8820   -2.2830   -0.1640 H   0  0  0  0  0  0  0  0  0  0  0  0
    6.7430    0.0000    0.0380 H   0  0  0  0  0  0  0  0  0  0  0  0
    4.7070    1.2240   -0.5260 H   0  0  0  0  0  0  0  0  0  0  0  0
    3.0750    2.1140   -0.9780 H   0  0  0  0  0  0  0  0  0  0  0  0
    0.9700    3.2040   -1.5580 H   0  0  0  0  0  0  0  0  0  0  0  0
   -0.9380   -0.5930   -2.0270 H   0  0  0  0  0  0  0  0  0  0  0  0
    4.7180   -3.7350   -0.4650 H   0  0  0  0  0  0  0  0  0  0  0  0
    1.5840   -4.3100   -3.1580 H   0  0  0  0  0  0  0  0  0  0  0  0
    1.5440   -6.7670   -3.1400 H   0  0  0  0  0  0  0  0  0  0  0  0
    2.8670   -6.7670    0.9300 H   0  0  0  0  0  0  0  0  0  0  0  0
    2.9180   -4.3100    0.9180 H   0  0  0  0  0  0  0  0  0  0  0  0
    2.4230   -8.7980   -0.2930 H   0  0  0  0  0  0  0  0  0  0  0  0
    1.9040   -8.7980   -1.8910 H   0  0  0  0  0  0  0  0  0  0  0  0
   -0.0580   -2.9400   -2.8230 H   0  0  0  0  0  0  0  0  0  0  0  0
   -0.0010   -3.7060   -1.2180 H   0  0  0  0  0  0  0  0  0  0  0  0
   -0.8890   -2.1800   -1.4450 H   0  0  0  0  0  0  0  0  0  0  0  0
   -2.0900    1.4830   -2.3720 H   0  0  0  0  0  0  0  0  0  0  0  0
   -1.3420    2.9750   -2.1840 H   0  0  0  0  0  0  0  0  0  0  0  0
  1  2  1  0  0  0  0
  1 34  1  0  0  0  0
  1 35  1  0  0  0  0
  1 36  1  0  0  0  0
  2  3  1  0  0  0  0
  2  7  1  0  0  0  0
  3  4  2  0  0  0  0
  3 37  1  0  0  0  0
  4  5  1  0  0  0  0
  4 10  1  0  0  0  0
  5  6  2  0  0  0  0
  6  7  1  0  0  0  0
  6  9  1  0  0  0  0
  7  8  1  0  0  0  0
  8 38  1  0  0  0  0
  8 39  1  0  0  0  0
  8 40  1  0  0  0  0
  9 41  1  0  0  0  0
  9 42  1  0  0  0  0
 10 11  1  0  0  0  0
 10 43  1  0  0  0  0
 11 12  1  0  0  0  0
 11 24  2  0  0  0  0
 12 13  2  0  0  0  0
 12 44  1  0  0  0  0
 13 14  1  0  0  0  0
 13 45  1  0  0  0  0
 14 15  2  0  0  0  0
 14 23  1  0  0  0  0
 15 16  1  0  0  0  0
 15 20  1  0  0  0  0
 16 17  1  0  0  0  0
 16 46  1  0  0  0  0
 17 18  2  0  0  0  0
 17 47  1  0  0  0  0
 18 19  1  0  0  0  0
 18 33  1  0  0  0  0
 19 20  2  0  0  0  0
 19 48  1  0  0  0  0
 20 21  1  0  0  0  0
 21 22  1  0  0  0  0
 21 32  1  0  0  0  0
 22 23  2  0  0  0  0
 22 25  1  0  0  0  0
 23 24  1  0  0  0  0
 24 49  1  0  0  0  0
 25 26  2  0  0  0  0
 25 30  1  0  0  0  0
 26 27  1  0  0  0  0
 26 50  1  0  0  0  0
 27 28  2  0  0  0  0
 27 51  1  0  0  0  0
 28 29  1  0  0  0  0
 28 31  1  0  0  0  0
 29 30  2  0  0  0  0
 29 52  1  0  0  0  0
 30 53  1  0  0  0  0
 31 54  1  0  0  0  0
 31 55  1  0  0  0  0
 32 56  1  0  0  0  0
 32 57  1  0  0  0  0
 32 58  1  0  0  0  0
 33 59  1  0  0  0  0
 33 60  1  0  0  0  0
M  END
$$$$
