ZINC00576766
 OpenBabel12162120293D

 65 69  0  0  1  0  0  0  0  0999 V2000
    0.3346   -0.7968    0.6059 C   0  0  0  0  0  0  0  0  0  0  0  0
   -0.0160    0.6518    0.1036 C   0  0  1  0  0  0  0  0  0  0  0  0
   -0.5781    0.4113   -1.3335 C   0  0  0  0  0  0  0  0  0  0  0  0
   -1.9738    0.9883   -1.7038 C   0  0  2  0  0  0  0  0  0  0  0  0
   -1.8036    1.9233   -2.2519 H   0  0  0  0  0  0  0  0  0  0  0  0
   -2.8966    1.2743   -0.4776 C   0  0  1  0  0  0  0  0  0  0  0  0
   -2.9993    0.3191    0.0645 H   0  0  0  0  0  0  0  0  0  0  0  0
   -2.0514    2.2185    0.3940 C   0  0  2  0  0  0  0  0  0  0  0  0
   -1.5109    2.9081   -0.2705 H   0  0  0  0  0  0  0  0  0  0  0  0
   -1.0177    1.3027    1.0663 C   0  0  0  0  0  0  0  0  0  0  0  0
   -0.3920    1.7040    2.1836 C   0  0  0  0  0  0  0  0  0  0  0  0
    0.9319    2.2772    1.7408 C   0  0  2  0  0  0  0  0  0  0  0  0
    0.8117    3.3633    1.6398 H   0  0  0  0  0  0  0  0  0  0  0  0
    1.2496    1.5628    0.3736 C   0  0  2  0  0  0  0  0  0  0  0  0
    1.6489    2.7111   -0.5605 C   0  0  0  0  0  0  0  0  0  0  0  0
    0.8558    3.2565   -1.3276 O   0  0  0  0  0  0  0  0  0  0  0  0
    3.1080    3.1932   -0.3788 C   0  0  0  0  0  0  0  0  0  0  0  0
    3.4424    4.4351   -0.9741 O   0  0  0  0  0  0  0  0  0  0  0  0
    3.1053    5.5231   -0.2465 C   0  0  0  0  0  0  0  0  0  0  0  0
    2.5430    5.5264    0.8427 O   0  0  0  0  0  0  0  0  0  0  0  0
    3.4618    6.7260   -1.0281 C   0  0  0  0  0  0  0  0  0  0  0  0
    4.5889    6.7511   -1.8635 C   0  0  0  0  0  0  0  0  0  0  0  0
    4.8232    7.8616   -2.6753 C   0  0  0  0  0  0  0  0  0  0  0  0
    3.9419    8.9439   -2.6450 C   0  0  0  0  0  0  0  0  0  0  0  0
    2.8469    8.9362   -1.7787 C   0  0  0  0  0  0  0  0  0  0  0  0
    2.6118    7.8327   -0.9590 C   0  0  0  0  0  0  0  0  0  0  0  0
    2.4313    0.7442    0.5368 O   0  0  0  0  0  0  0  0  0  0  0  0
    1.9394    2.0080    2.7031 O   0  0  0  0  0  0  0  0  0  0  0  0
   -2.7883    3.1367    1.3750 C   0  0  0  0  0  0  0  0  0  0  0  0
   -4.0524    3.7440    0.7939 C   0  0  0  0  0  0  0  0  0  0  0  0
   -4.9391    2.6334    0.3156 C   0  0  0  0  0  0  0  0  0  0  0  0
   -6.1435    2.4606    0.8907 C   0  0  0  0  0  0  0  0  0  0  0  0
   -6.9743    1.2760    0.6085 C   0  0  0  0  0  0  0  0  0  0  0  0
   -8.0814    1.1369    1.1119 O   0  0  0  0  0  0  0  0  0  0  0  0
   -6.3828    0.2386   -0.2546 C   0  0  0  0  0  0  0  0  0  0  0  0
   -5.2285    0.4576   -0.8998 C   0  0  0  0  0  0  0  0  0  0  0  0
   -4.3759    1.7276   -0.7898 C   0  0  2  0  0  0  0  0  0  0  0  0
   -4.5169    2.4853   -2.1273 C   0  0  0  0  0  0  0  0  0  0  0  0
   -2.6008    0.1014   -2.6318 O   0  0  0  0  0  0  0  0  0  0  0  0
   -0.5528   -1.4354    0.6595 H   0  0  0  0  0  0  0  0  0  0  0  0
    1.0431   -1.2772   -0.0878 H   0  0  0  0  0  0  0  0  0  0  0  0
    0.8045   -0.8088    1.5948 H   0  0  0  0  0  0  0  0  0  0  0  0
   -0.6839   -0.6759   -1.4826 H   0  0  0  0  0  0  0  0  0  0  0  0
    0.1576    0.6839   -2.0987 H   0  0  0  0  0  0  0  0  0  0  0  0
   -0.2043    0.9236    2.9290 H   0  0  0  0  0  0  0  0  0  0  0  0
    3.7583    2.4428   -0.8392 H   0  0  0  0  0  0  0  0  0  0  0  0
    3.3582    3.2188    0.6893 H   0  0  0  0  0  0  0  0  0  0  0  0
    5.2772    5.9103   -1.8976 H   0  0  0  0  0  0  0  0  0  0  0  0
    5.6819    7.8769   -3.3409 H   0  0  0  0  0  0  0  0  0  0  0  0
    4.1052    9.7929   -3.3020 H   0  0  0  0  0  0  0  0  0  0  0  0
    2.1616    9.7803   -1.7606 H   0  0  0  0  0  0  0  0  0  0  0  0
    1.7524    7.8222   -0.2952 H   0  0  0  0  0  0  0  0  0  0  0  0
    2.7111    0.8875    1.4695 H   0  0  0  0  0  0  0  0  0  0  0  0
    1.7444    2.5964    3.4593 H   0  0  0  0  0  0  0  0  0  0  0  0
   -2.1160    3.9623    1.6544 H   0  0  0  0  0  0  0  0  0  0  0  0
   -3.0276    2.6078    2.3044 H   0  0  0  0  0  0  0  0  0  0  0  0
   -3.8298    4.4444   -0.0183 H   0  0  0  0  0  0  0  0  0  0  0  0
   -4.5404    4.3305    1.5831 H   0  0  0  0  0  0  0  0  0  0  0  0
   -6.5478    3.1401    1.6329 H   0  0  0  0  0  0  0  0  0  0  0  0
   -6.9351   -0.6887   -0.3400 H   0  0  0  0  0  0  0  0  0  0  0  0
   -4.8597   -0.3356   -1.5446 H   0  0  0  0  0  0  0  0  0  0  0  0
   -3.8221    3.3288   -2.1930 H   0  0  0  0  0  0  0  0  0  0  0  0
   -5.5317    2.8858   -2.2552 H   0  0  0  0  0  0  0  0  0  0  0  0
   -4.3395    1.8385   -2.9937 H   0  0  0  0  0  0  0  0  0  0  0  0
   -2.6932   -0.7691   -2.2094 H   0  0  0  0  0  0  0  0  0  0  0  0
  1 40  1  0  0  0  0
  1 41  1  0  0  0  0
  1 42  1  0  0  0  0
  2  1  1  1  0  0  0
  2  3  1  0  0  0  0
  2 10  1  0  0  0  0
  2 14  1  0  0  0  0
  3  4  1  0  0  0  0
  3 43  1  0  0  0  0
  3 44  1  0  0  0  0
  4  5  1  6  0  0  0
  4  6  1  0  0  0  0
  4 39  1  0  0  0  0
  6  7  1  1  0  0  0
  6  8  1  0  0  0  0
  6 37  1  0  0  0  0
  8  9  1  6  0  0  0
  8 10  1  0  0  0  0
  8 29  1  0  0  0  0
 10 11  2  3  0  0  0
 11 12  1  0  0  0  0
 11 45  1  0  0  0  0
 12 14  1  0  0  0  0
 12 28  1  0  0  0  0
 12 13  1  6  0  0  0
 14 27  1  1  0  0  0
 14 15  1  0  0  0  0
 15 16  2  0  0  0  0
 15 17  1  0  0  0  0
 17 18  1  0  0  0  0
 17 46  1  0  0  0  0
 17 47  1  0  0  0  0
 18 19  1  0  0  0  0
 19 20  2  0  0  0  0
 19 21  1  0  0  0  0
 21 22  2  0  0  0  0
 21 26  1  0  0  0  0
 22 23  1  0  0  0  0
 22 48  1  0  0  0  0
 23 24  2  0  0  0  0
 23 49  1  0  0  0  0
 24 25  1  0  0  0  0
 24 50  1  0  0  0  0
 25 26  2  0  0  0  0
 25 51  1  0  0  0  0
 26 52  1  0  0  0  0
 27 53  1  0  0  0  0
 28 54  1  0  0  0  0
 29 30  1  0  0  0  0
 29 55  1  0  0  0  0
 29 56  1  0  0  0  0
 30 31  1  0  0  0  0
 30 57  1  0  0  0  0
 30 58  1  0  0  0  0
 31 32  2  0  0  0  0
 31 37  1  0  0  0  0
 32 33  1  0  0  0  0
 32 59  1  0  0  0  0
 33 34  2  0  0  0  0
 33 35  1  0  0  0  0
 35 36  2  0  0  0  0
 35 60  1  0  0  0  0
 36 37  1  0  0  0  0
 36 61  1  0  0  0  0
 37 38  1  6  0  0  0
 38 62  1  0  0  0  0
 38 63  1  0  0  0  0
 38 64  1  0  0  0  0
 39 65  1  0  0  0  0
M  END
$$$$
