ZINC00538490
 OpenBabel12162120283D

 55 57  0  0  0  0  0  0  0  0999 V2000
    0.3864    0.6431    2.0214 C   0  0  0  0  0  0  0  0  0  0  0  0
   -0.2692    1.7251    1.1318 C   0  0  0  0  0  0  0  0  0  0  0  0
    0.7523    2.7636    1.0899 N   0  0  0  0  0  0  0  0  0  0  0  0
    1.0941    3.2478   -0.0421 C   0  0  0  0  0  0  0  0  0  0  0  0
    0.6004    2.8516   -1.2338 N   0  0  0  0  0  0  0  0  0  0  0  0
   -0.2296    1.8587   -1.2759 C   0  0  0  0  0  0  0  0  0  0  0  0
   -0.6920    1.1533   -0.1812 N   0  0  0  0  0  0  0  0  0  0  0  0
   -1.3261   -0.1214   -0.1984 C   0  0  0  0  0  0  0  0  0  0  0  0
   -2.1749   -0.5351    0.8346 C   0  0  0  0  0  0  0  0  0  0  0  0
   -2.7917   -1.7791    0.8738 C   0  0  0  0  0  0  0  0  0  0  0  0
   -2.6963   -2.6507   -0.2000 C   0  0  0  0  0  0  0  0  0  0  0  0
   -1.8155   -2.3149   -1.2286 C   0  0  0  0  0  0  0  0  0  0  0  0
   -1.1248   -1.0819   -1.2118 C   0  0  0  0  0  0  0  0  0  0  0  0
   -1.5492   -3.3834   -2.5598 Cl  0  0  0  0  0  0  0  0  0  0  0  0
   -3.4526   -3.7972   -0.2776 O   0  0  0  0  0  0  0  0  0  0  0  0
   -4.6126   -3.7492    0.5642 C   0  0  0  0  0  0  0  0  0  0  0  0
   -5.6474   -4.8078    0.3079 C   0  0  0  0  0  0  0  0  0  0  0  0
   -6.8178   -4.7725    1.0794 C   0  0  0  0  0  0  0  0  0  0  0  0
   -7.7256   -5.8226    1.0250 C   0  0  0  0  0  0  0  0  0  0  0  0
   -7.4732   -6.9151    0.1933 C   0  0  0  0  0  0  0  0  0  0  0  0
   -6.3685   -6.9210   -0.6660 C   0  0  0  0  0  0  0  0  0  0  0  0
   -5.4518   -5.8578   -0.5896 C   0  0  0  0  0  0  0  0  0  0  0  0
   -6.0147   -8.0349   -1.5946 C   0  0  0  0  0  0  0  0  0  0  0  0
   -4.8169   -8.1663   -1.8648 O   0  0  0  0  0  0  0  0  0  0  0  0
   -6.9624   -8.8923   -2.1620 N   0  0  0  0  0  0  0  0  0  0  0  0
   -8.4087   -8.8384   -2.0403 C   0  0  0  0  0  0  0  0  0  0  0  0
   -6.4304   -9.9178   -3.0441 C   0  0  0  0  0  0  0  0  0  0  0  0
   -0.7115    1.6000   -2.5158 N   0  0  0  0  0  0  0  0  0  0  0  0
    1.9649    4.2825   -0.0530 N   0  0  0  0  0  0  0  0  0  0  0  0
   -1.4403    2.4585    1.8397 C   0  0  0  0  0  0  0  0  0  0  0  0
    1.1195    0.0685    1.4406 H   0  0  0  0  0  0  0  0  0  0  0  0
   -0.3183   -0.0654    2.4607 H   0  0  0  0  0  0  0  0  0  0  0  0
    0.9248    1.0943    2.8626 H   0  0  0  0  0  0  0  0  0  0  0  0
   -2.3880    0.0735    1.6966 H   0  0  0  0  0  0  0  0  0  0  0  0
   -3.3626   -2.0067    1.7683 H   0  0  0  0  0  0  0  0  0  0  0  0
   -0.3963   -0.9053   -1.9986 H   0  0  0  0  0  0  0  0  0  0  0  0
   -4.2876   -3.8967    1.6035 H   0  0  0  0  0  0  0  0  0  0  0  0
   -5.1182   -2.7807    0.4496 H   0  0  0  0  0  0  0  0  0  0  0  0
   -6.9999   -3.9441    1.7622 H   0  0  0  0  0  0  0  0  0  0  0  0
   -8.6072   -5.8055    1.6603 H   0  0  0  0  0  0  0  0  0  0  0  0
   -8.1431   -7.7630    0.2606 H   0  0  0  0  0  0  0  0  0  0  0  0
   -4.5540   -5.8734   -1.2082 H   0  0  0  0  0  0  0  0  0  0  0  0
   -8.8715   -9.1252   -2.9890 H   0  0  0  0  0  0  0  0  0  0  0  0
   -8.7059   -9.5564   -1.2686 H   0  0  0  0  0  0  0  0  0  0  0  0
   -8.7686   -7.8410   -1.7914 H   0  0  0  0  0  0  0  0  0  0  0  0
   -6.0597   -9.4333   -3.9535 H   0  0  0  0  0  0  0  0  0  0  0  0
   -5.5998  -10.4356   -2.5546 H   0  0  0  0  0  0  0  0  0  0  0  0
   -7.2005  -10.6478   -3.3062 H   0  0  0  0  0  0  0  0  0  0  0  0
   -0.1263    1.9569   -3.2608 H   0  0  0  0  0  0  0  0  0  0  0  0
   -1.2438    0.7762   -2.7309 H   0  0  0  0  0  0  0  0  0  0  0  0
    1.9291    4.7970    0.8170 H   0  0  0  0  0  0  0  0  0  0  0  0
    1.8443    4.8586   -0.8750 H   0  0  0  0  0  0  0  0  0  0  0  0
   -2.3506    1.8879    2.0037 H   0  0  0  0  0  0  0  0  0  0  0  0
   -1.1221    2.8155    2.8274 H   0  0  0  0  0  0  0  0  0  0  0  0
   -1.7498    3.3382    1.2617 H   0  0  0  0  0  0  0  0  0  0  0  0
  1  2  1  0  0  0  0
  1 31  1  0  0  0  0
  1 32  1  0  0  0  0
  1 33  1  0  0  0  0
  2  3  1  0  0  0  0
  2  7  1  0  0  0  0
  2 30  1  0  0  0  0
  3  4  2  0  0  0  0
  4  5  1  0  0  0  0
  4 29  1  0  0  0  0
  5  6  2  0  0  0  0
  6  7  1  0  0  0  0
  6 28  1  0  0  0  0
  7  8  1  0  0  0  0
  8  9  2  0  0  0  0
  8 13  1  0  0  0  0
  9 10  1  0  0  0  0
  9 34  1  0  0  0  0
 10 11  2  0  0  0  0
 10 35  1  0  0  0  0
 11 12  1  0  0  0  0
 11 15  1  0  0  0  0
 12 13  2  0  0  0  0
 12 14  1  0  0  0  0
 13 36  1  0  0  0  0
 15 16  1  0  0  0  0
 16 17  1  0  0  0  0
 16 37  1  0  0  0  0
 16 38  1  0  0  0  0
 17 18  2  0  0  0  0
 17 22  1  0  0  0  0
 18 19  1  0  0  0  0
 18 39  1  0  0  0  0
 19 20  2  0  0  0  0
 19 40  1  0  0  0  0
 20 21  1  0  0  0  0
 20 41  1  0  0  0  0
 21 22  2  0  0  0  0
 21 23  1  0  0  0  0
 22 42  1  0  0  0  0
 23 24  2  0  0  0  0
 23 25  1  0  0  0  0
 25 26  1  0  0  0  0
 25 27  1  0  0  0  0
 26 43  1  0  0  0  0
 26 44  1  0  0  0  0
 26 45  1  0  0  0  0
 27 46  1  0  0  0  0
 27 47  1  0  0  0  0
 27 48  1  0  0  0  0
 28 49  1  0  0  0  0
 28 50  1  0  0  0  0
 29 51  1  0  0  0  0
 29 52  1  0  0  0  0
 30 53  1  0  0  0  0
 30 54  1  0  0  0  0
 30 55  1  0  0  0  0
M  END
$$$$
