ZINC00576547
 OpenBabel12162120293D

 55 59  0  0  1  0  0  0  0  0999 V2000
   -8.5130    1.5410    0.4430 C   0  0  0  0  0  0  0  0  0  0  0  0
   -8.1870    2.4800    1.4040 C   0  0  0  0  0  0  0  0  0  0  0  0
   -7.0240    3.2180    1.2840 C   0  0  0  0  0  0  0  0  0  0  0  0
   -6.1870    3.0170    0.2020 C   0  0  0  0  0  0  0  0  0  0  0  0
   -6.5160    2.0820   -0.7620 C   0  0  0  0  0  0  0  0  0  0  0  0
   -7.6760    1.3400   -0.6380 C   0  0  0  0  0  0  0  0  0  0  0  0
   -4.9200    3.8210    0.0700 C   0  0  1  0  0  0  0  0  0  0  0  0
   -4.8340    4.5050    0.9150 H   0  0  0  0  0  0  0  0  0  0  0  0
   -3.7160    2.8770    0.0530 C   0  0  0  0  0  0  0  0  0  0  0  0
   -2.4800    3.6630    0.0460 N   0  0  0  0  0  0  0  0  0  0  0  0
   -1.2530    3.0220    0.0300 C   0  0  0  0  0  0  0  0  0  0  0  0
   -0.0560    3.7600    0.0230 C   0  0  0  0  0  0  0  0  0  0  0  0
    1.1580    3.0540    0.0070 C   0  0  0  0  0  0  0  0  0  0  0  0
    1.1320    1.7250    0.0000 N   0  0  0  0  0  0  0  0  0  0  0  0
   -0.0130    1.0760    0.0080 C   0  0  0  0  0  0  0  0  0  0  0  0
   -1.1790    1.6960    0.0170 N   0  0  0  0  0  0  0  0  0  0  0  0
    2.1480    4.0040    0.0040 N   0  0  0  0  0  0  0  0  0  0  0  0
    1.5420    5.2250    0.0160 C   0  0  0  0  0  0  0  0  0  0  0  0
    0.2490    5.0800    0.0270 N   0  0  0  0  0  0  0  0  0  0  0  0
    3.5910    3.7520   -0.0110 C   0  0  2  0  0  0  0  0  0  0  0  0
    3.8160    2.8520   -0.5820 H   0  0  0  0  0  0  0  0  0  0  0  0
    4.1400    3.6370    1.4340 C   0  0  2  0  0  0  0  0  0  0  0  0
    3.6390    4.3430    2.0970 H   0  0  0  0  0  0  0  0  0  0  0  0
    5.6290    4.0160    1.2470 C   0  0  2  0  0  0  0  0  0  0  0  0
    5.9680    4.6470    2.0680 H   0  0  0  0  0  0  0  0  0  0  0  0
    5.6550    4.7990   -0.0800 C   0  0  1  0  0  0  0  0  0  0  0  0
    6.2680    4.2730   -0.8120 H   0  0  0  0  0  0  0  0  0  0  0  0
    4.3000    4.8880   -0.5510 O   0  0  0  0  0  0  0  0  0  0  0  0
    6.2170    6.2030    0.1550 C   0  0  0  0  0  0  0  0  0  0  0  0
    6.3300    6.8860   -1.0950 O   0  0  0  0  0  0  0  0  0  0  0  0
    6.4360    2.8410    1.1500 O   0  0  0  0  0  0  0  0  0  0  0  0
    4.0110    2.3010    1.9240 O   0  0  0  0  0  0  0  0  0  0  0  0
   -4.9570    4.6110   -1.2120 C   0  0  0  0  0  0  0  0  0  0  0  0
   -4.9000    5.9510   -1.3130 C   0  0  0  0  0  0  0  0  0  0  0  0
   -4.9630    6.2620   -2.6910 C   0  0  0  0  0  0  0  0  0  0  0  0
   -5.0630    5.0930   -3.3500 C   0  0  0  0  0  0  0  0  0  0  0  0
   -5.0590    4.0960   -2.4490 O   0  0  0  0  0  0  0  0  0  0  0  0
   -9.4220    0.9650    0.5370 H   0  0  0  0  0  0  0  0  0  0  0  0
   -8.8410    2.6370    2.2490 H   0  0  0  0  0  0  0  0  0  0  0  0
   -6.7700    3.9510    2.0340 H   0  0  0  0  0  0  0  0  0  0  0  0
   -5.8640    1.9280   -1.6090 H   0  0  0  0  0  0  0  0  0  0  0  0
   -7.9310    0.6070   -1.3900 H   0  0  0  0  0  0  0  0  0  0  0  0
   -3.7560    2.2540   -0.8400 H   0  0  0  0  0  0  0  0  0  0  0  0
   -3.7380    2.2440    0.9400 H   0  0  0  0  0  0  0  0  0  0  0  0
   -2.4590    4.2440   -0.7680 H   0  0  0  0  0  0  0  0  0  0  0  0
    0.0020   -0.0040    0.0020 H   0  0  0  0  0  0  0  0  0  0  0  0
    2.0590    6.1730    0.0170 H   0  0  0  0  0  0  0  0  0  0  0  0
    5.5460    6.7570    0.8120 H   0  0  0  0  0  0  0  0  0  0  0  0
    7.2000    6.1280    0.6190 H   0  0  0  0  0  0  0  0  0  0  0  0
    6.6810    7.7840   -1.0220 H   0  0  0  0  0  0  0  0  0  0  0  0
    7.3700    3.0180    0.9740 H   0  0  0  0  0  0  0  0  0  0  0  0
    4.3410    2.1790    2.8240 H   0  0  0  0  0  0  0  0  0  0  0  0
   -4.8200    6.6550   -0.4980 H   0  0  0  0  0  0  0  0  0  0  0  0
   -4.9400    7.2480   -3.1310 H   0  0  0  0  0  0  0  0  0  0  0  0
   -5.1340    4.9750   -4.4210 H   0  0  0  0  0  0  0  0  0  0  0  0
  1  2  2  0  0  0  0
  1  6  1  0  0  0  0
  1 38  1  0  0  0  0
  2  3  1  0  0  0  0
  2 39  1  0  0  0  0
  3  4  2  0  0  0  0
  3 40  1  0  0  0  0
  4  5  1  0  0  0  0
  4  7  1  0  0  0  0
  5  6  2  0  0  0  0
  5 41  1  0  0  0  0
  6 42  1  0  0  0  0
  7  8  1  1  0  0  0
  7  9  1  0  0  0  0
  7 33  1  0  0  0  0
  9 10  1  0  0  0  0
  9 43  1  0  0  0  0
  9 44  1  0  0  0  0
 10 11  1  0  0  0  0
 10 45  1  0  0  0  0
 11 12  2  0  0  0  0
 11 16  1  0  0  0  0
 12 13  1  0  0  0  0
 12 19  1  0  0  0  0
 13 14  2  0  0  0  0
 13 17  1  0  0  0  0
 14 15  1  0  0  0  0
 15 16  2  0  0  0  0
 15 46  1  0  0  0  0
 17 18  1  0  0  0  0
 17 20  1  0  0  0  0
 18 19  2  0  0  0  0
 18 47  1  0  0  0  0
 20 21  1  6  0  0  0
 20 22  1  0  0  0  0
 20 28  1  0  0  0  0
 22 23  1  1  0  0  0
 22 24  1  0  0  0  0
 22 32  1  0  0  0  0
 24 25  1  1  0  0  0
 24 26  1  0  0  0  0
 24 31  1  0  0  0  0
 26 27  1  6  0  0  0
 26 28  1  0  0  0  0
 26 29  1  0  0  0  0
 29 30  1  0  0  0  0
 29 48  1  0  0  0  0
 29 49  1  0  0  0  0
 30 50  1  0  0  0  0
 31 51  1  0  0  0  0
 32 52  1  0  0  0  0
 33 34  2  0  0  0  0
 33 37  1  0  0  0  0
 34 35  1  0  0  0  0
 34 53  1  0  0  0  0
 35 36  2  0  0  0  0
 35 54  1  0  0  0  0
 36 37  1  0  0  0  0
 36 55  1  0  0  0  0
M  END
$$$$
