ZINC01490749
 OpenBabel12162120153D

 45 48  0  0  0  0  0  0  0  0999 V2000
    3.6880    1.5460   -0.0300 C   0  0  0  0  0  0  0  0  0  0  0  0
    4.7490    0.6690   -0.0390 C   0  0  0  0  0  0  0  0  0  0  0  0
    4.5030   -0.6680   -0.0450 C   0  0  0  0  0  0  0  0  0  0  0  0
    2.7180   -0.7210   -0.0280 S   0  0  0  0  0  0  0  0  0  0  0  0
    2.4140    1.0380   -0.0150 C   0  0  0  0  0  0  0  0  0  0  0  0
    1.1300    1.7560    0.0010 C   0  0  0  0  0  0  0  0  0  0  0  0
   -0.0130    1.0760    0.0080 C   0  0  0  0  0  0  0  0  0  0  0  0
   -1.5500    1.9360    0.0200 S   0  0  0  0  0  0  0  0  0  0  0  0
   -2.3370    1.3470    1.0460 O   0  0  0  0  0  0  0  0  0  0  0  0
   -1.2400    3.3230   -0.0010 O   0  0  0  0  0  0  0  0  0  0  0  0
   -2.3110    1.5990   -1.4120 N   0  0  0  0  0  0  0  0  0  0  0  0
   -3.2170    0.4460   -1.5460 C   0  0  0  0  0  0  0  0  0  0  0  0
   -4.6090    0.9710   -1.9020 C   0  0  0  0  0  0  0  0  0  0  0  0
   -4.5310    1.9600   -2.9680 N   0  0  0  0  0  0  0  0  0  0  0  0
   -3.4380    2.6600   -3.2730 C   0  0  0  0  0  0  0  0  0  0  0  0
   -3.5170    3.5130   -4.1320 O   0  0  0  0  0  0  0  0  0  0  0  0
   -2.1140    2.4440   -2.6000 C   0  0  0  0  0  0  0  0  0  0  0  0
   -5.7390    2.2030   -3.7610 C   0  0  0  0  0  0  0  0  0  0  0  0
   -6.5480    3.3010   -3.1200 C   0  0  0  0  0  0  0  0  0  0  0  0
   -6.4870    4.6000   -3.4560 C   0  0  0  0  0  0  0  0  0  0  0  0
   -7.4310    5.3090   -2.5910 C   0  0  0  0  0  0  0  0  0  0  0  0
   -7.8260    6.6370   -2.4440 C   0  0  0  0  0  0  0  0  0  0  0  0
   -8.7290    6.9590   -1.5410 N   0  0  0  0  0  0  0  0  0  0  0  0
   -9.2890    6.0580   -0.7510 C   0  0  0  0  0  0  0  0  0  0  0  0
   -8.9600    4.7330   -0.8280 C   0  0  0  0  0  0  0  0  0  0  0  0
   -8.0110    4.3260   -1.7620 C   0  0  0  0  0  0  0  0  0  0  0  0
   -7.4580    3.1220   -2.1120 N   0  0  0  0  0  0  0  0  0  0  0  0
   -7.6770    2.2690   -1.7050 H   0  0  0  0  0  0  0  0  0  0  0  0
    5.6330   -1.9860   -0.0630 Cl  0  0  0  0  0  0  0  0  0  0  0  0
    3.8550    2.6130   -0.0320 H   0  0  0  0  0  0  0  0  0  0  0  0
    5.7640    1.0380   -0.0460 H   0  0  0  0  0  0  0  0  0  0  0  0
    1.1150    2.8360    0.0070 H   0  0  0  0  0  0  0  0  0  0  0  0
    0.0020   -0.0040    0.0020 H   0  0  0  0  0  0  0  0  0  0  0  0
   -2.8590   -0.2130   -2.3370 H   0  0  0  0  0  0  0  0  0  0  0  0
   -3.2580   -0.1000   -0.6040 H   0  0  0  0  0  0  0  0  0  0  0  0
   -5.2330    0.1390   -2.2290 H   0  0  0  0  0  0  0  0  0  0  0  0
   -5.0560    1.4300   -1.0200 H   0  0  0  0  0  0  0  0  0  0  0  0
   -1.6960    3.4040   -2.3000 H   0  0  0  0  0  0  0  0  0  0  0  0
   -1.4330    1.9470   -3.2920 H   0  0  0  0  0  0  0  0  0  0  0  0
   -5.4560    2.5020   -4.7700 H   0  0  0  0  0  0  0  0  0  0  0  0
   -6.3340    1.2910   -3.8050 H   0  0  0  0  0  0  0  0  0  0  0  0
   -5.8620    5.0380   -4.2200 H   0  0  0  0  0  0  0  0  0  0  0  0
   -7.3920    7.4020   -3.0700 H   0  0  0  0  0  0  0  0  0  0  0  0
  -10.0250    6.3770   -0.0270 H   0  0  0  0  0  0  0  0  0  0  0  0
   -9.4290    4.0130   -0.1730 H   0  0  0  0  0  0  0  0  0  0  0  0
  1  2  1  0  0  0  0
  1  5  2  0  0  0  0
  1 30  1  0  0  0  0
  2  3  2  0  0  0  0
  2 31  1  0  0  0  0
  3  4  1  0  0  0  0
  3 29  1  0  0  0  0
  4  5  1  0  0  0  0
  5  6  1  0  0  0  0
  6  7  2  0  0  0  0
  6 32  1  0  0  0  0
  7  8  1  0  0  0  0
  7 33  1  0  0  0  0
  8  9  2  0  0  0  0
  8 10  2  0  0  0  0
  8 11  1  0  0  0  0
 11 12  1  0  0  0  0
 11 17  1  0  0  0  0
 12 13  1  0  0  0  0
 12 34  1  0  0  0  0
 12 35  1  0  0  0  0
 13 14  1  0  0  0  0
 13 36  1  0  0  0  0
 13 37  1  0  0  0  0
 14 15  1  0  0  0  0
 14 18  1  0  0  0  0
 15 16  2  0  0  0  0
 15 17  1  0  0  0  0
 17 38  1  0  0  0  0
 17 39  1  0  0  0  0
 18 19  1  0  0  0  0
 18 40  1  0  0  0  0
 18 41  1  0  0  0  0
 19 20  2  0  0  0  0
 19 27  1  0  0  0  0
 20 21  1  0  0  0  0
 20 42  1  0  0  0  0
 21 22  2  0  0  0  0
 21 26  1  0  0  0  0
 22 23  1  0  0  0  0
 22 43  1  0  0  0  0
 23 24  2  0  0  0  0
 24 25  1  0  0  0  0
 24 44  1  0  0  0  0
 25 26  2  0  0  0  0
 25 45  1  0  0  0  0
 26 27  1  0  0  0  0
 27 28  1  0  0  0  0
M  END
$$$$
