ZINC01033024
 OpenBabel12162120153D

 46 49  0  0  0  0  0  0  0  0999 V2000
    1.2680   -2.0880    0.1290 C   0  0  0  0  0  0  0  0  0  0  0  0
    1.2270   -0.5820    0.0980 C   0  0  0  0  0  0  0  0  0  0  0  0
    2.4040    0.1370   -0.0450 C   0  0  0  0  0  0  0  0  0  0  0  0
    2.3810    1.5160   -0.0750 C   0  0  0  0  0  0  0  0  0  0  0  0
    1.1740    2.1940    0.0370 C   0  0  0  0  0  0  0  0  0  0  0  0
   -0.0190    1.4700    0.1810 C   0  0  0  0  0  0  0  0  0  0  0  0
    0.0210    0.0740    0.2100 C   0  0  0  0  0  0  0  0  0  0  0  0
   -1.3080    2.1780    0.2950 C   0  0  0  0  0  0  0  0  0  0  0  0
   -1.3300    3.3920    0.3600 O   0  0  0  0  0  0  0  0  0  0  0  0
   -2.4600    1.4800    0.3260 N   0  0  0  0  0  0  0  0  0  0  0  0
   -3.6750    2.1430    0.5330 C   0  0  0  0  0  0  0  0  0  0  0  0
   -4.6880    1.5280    1.2560 C   0  0  0  0  0  0  0  0  0  0  0  0
   -5.8840    2.1860    1.4640 C   0  0  0  0  0  0  0  0  0  0  0  0
   -6.0780    3.4550    0.9420 C   0  0  0  0  0  0  0  0  0  0  0  0
   -5.0700    4.0680    0.2170 C   0  0  0  0  0  0  0  0  0  0  0  0
   -3.8700    3.4150    0.0120 C   0  0  0  0  0  0  0  0  0  0  0  0
   -7.2500    4.0950    1.1420 F   0  0  0  0  0  0  0  0  0  0  0  0
    1.1480    3.5860    0.0060 N   0  0  0  0  0  0  0  0  0  0  0  0
    2.0170    4.2580   -0.7750 C   0  0  0  0  0  0  0  0  0  0  0  0
    2.7580    3.6510   -1.5250 O   0  0  0  0  0  0  0  0  0  0  0  0
    2.0690    5.7240   -0.7210 C   0  0  0  0  0  0  0  0  0  0  0  0
    2.8730    6.5710   -1.4210 C   0  0  0  0  0  0  0  0  0  0  0  0
    2.7660    7.9610   -1.2260 C   0  0  0  0  0  0  0  0  0  0  0  0
    3.5040    8.9950   -1.8570 C   0  0  0  0  0  0  0  0  0  0  0  0
    3.2780   10.2980   -1.5470 C   0  0  0  0  0  0  0  0  0  0  0  0
    2.3220   10.6680   -0.6080 C   0  0  0  0  0  0  0  0  0  0  0  0
    1.5810    9.6940    0.0280 C   0  0  0  0  0  0  0  0  0  0  0  0
    1.8000    8.3670   -0.2760 C   0  0  0  0  0  0  0  0  0  0  0  0
    1.0990    6.8350    0.2840 S   0  0  0  0  0  0  0  0  0  0  0  0
    4.0260    5.9380   -2.5540 Cl  0  0  0  0  0  0  0  0  0  0  0  0
    1.1690   -2.4750   -0.8850 H   0  0  0  0  0  0  0  0  0  0  0  0
    2.2160   -2.4170    0.5530 H   0  0  0  0  0  0  0  0  0  0  0  0
    0.4470   -2.4610    0.7420 H   0  0  0  0  0  0  0  0  0  0  0  0
    3.3450   -0.3860   -0.1320 H   0  0  0  0  0  0  0  0  0  0  0  0
    3.3020    2.0690   -0.1860 H   0  0  0  0  0  0  0  0  0  0  0  0
   -0.8930   -0.4900    0.3200 H   0  0  0  0  0  0  0  0  0  0  0  0
   -2.4470    0.5180    0.2050 H   0  0  0  0  0  0  0  0  0  0  0  0
   -4.5400    0.5370    1.6580 H   0  0  0  0  0  0  0  0  0  0  0  0
   -6.6710    1.7100    2.0300 H   0  0  0  0  0  0  0  0  0  0  0  0
   -5.2220    5.0570   -0.1880 H   0  0  0  0  0  0  0  0  0  0  0  0
   -3.0840    3.8940   -0.5540 H   0  0  0  0  0  0  0  0  0  0  0  0
    0.5050    4.0710    0.5460 H   0  0  0  0  0  0  0  0  0  0  0  0
    4.2550    8.7440   -2.5910 H   0  0  0  0  0  0  0  0  0  0  0  0
    3.8550   11.0650   -2.0420 H   0  0  0  0  0  0  0  0  0  0  0  0
    2.1610   11.7110   -0.3790 H   0  0  0  0  0  0  0  0  0  0  0  0
    0.8360    9.9690    0.7600 H   0  0  0  0  0  0  0  0  0  0  0  0
  1  2  1  0  0  0  0
  1 31  1  0  0  0  0
  1 32  1  0  0  0  0
  1 33  1  0  0  0  0
  2  3  2  0  0  0  0
  2  7  1  0  0  0  0
  3  4  1  0  0  0  0
  3 34  1  0  0  0  0
  4  5  2  0  0  0  0
  4 35  1  0  0  0  0
  5  6  1  0  0  0  0
  5 18  1  0  0  0  0
  6  7  2  0  0  0  0
  6  8  1  0  0  0  0
  7 36  1  0  0  0  0
  8  9  2  0  0  0  0
  8 10  1  0  0  0  0
 10 11  1  0  0  0  0
 10 37  1  0  0  0  0
 11 12  2  0  0  0  0
 11 16  1  0  0  0  0
 12 13  1  0  0  0  0
 12 38  1  0  0  0  0
 13 14  2  0  0  0  0
 13 39  1  0  0  0  0
 14 15  1  0  0  0  0
 14 17  1  0  0  0  0
 15 16  2  0  0  0  0
 15 40  1  0  0  0  0
 16 41  1  0  0  0  0
 18 19  1  0  0  0  0
 18 42  1  0  0  0  0
 19 20  2  0  0  0  0
 19 21  1  0  0  0  0
 21 22  2  0  0  0  0
 21 29  1  0  0  0  0
 22 23  1  0  0  0  0
 22 30  1  0  0  0  0
 23 24  2  0  0  0  0
 23 28  1  0  0  0  0
 24 25  1  0  0  0  0
 24 43  1  0  0  0  0
 25 26  2  0  0  0  0
 25 44  1  0  0  0  0
 26 27  1  0  0  0  0
 26 45  1  0  0  0  0
 27 28  2  0  0  0  0
 27 46  1  0  0  0  0
 28 29  1  0  0  0  0
M  END
$$$$
