ZINC01494901
 OpenBabel12162120153D

 57 61  0  0  0  0  0  0  0  0999 V2000
    2.2110   -1.8340   -1.2310 C   0  0  0  0  0  0  0  0  0  0  0  0
    2.1960   -0.4300   -0.6840 C   0  0  0  0  0  0  0  0  0  0  0  0
    2.8080    0.6750   -1.2710 C   0  0  0  0  0  0  0  0  0  0  0  0
    2.5580    1.7700   -0.4660 C   0  0  0  0  0  0  0  0  0  0  0  0
    1.8140    1.3260    0.5940 N   0  0  0  0  0  0  0  0  0  0  0  0
    1.6060   -0.0480    0.4220 N   0  0  0  0  0  0  0  0  0  0  0  0
    1.3410    2.1060    1.6560 C   0  0  0  0  0  0  0  0  0  0  0  0
    2.2020    2.4780    2.6640 C   0  0  0  0  0  0  0  0  0  0  0  0
    1.7230    3.2560    3.7310 C   0  0  0  0  0  0  0  0  0  0  0  0
    2.5730    3.6590    4.7760 C   0  0  0  0  0  0  0  0  0  0  0  0
    2.0780    4.4180    5.7910 C   0  0  0  0  0  0  0  0  0  0  0  0
    0.7400    4.8080    5.8090 C   0  0  0  0  0  0  0  0  0  0  0  0
   -0.1100    4.4410    4.8130 C   0  0  0  0  0  0  0  0  0  0  0  0
    0.3630    3.6570    3.7470 C   0  0  0  0  0  0  0  0  0  0  0  0
   -0.4890    3.2610    2.7020 C   0  0  0  0  0  0  0  0  0  0  0  0
   -0.0040    2.5010    1.6810 C   0  0  0  0  0  0  0  0  0  0  0  0
   -0.8290    2.1240    0.6800 F   0  0  0  0  0  0  0  0  0  0  0  0
    3.0080    3.1490   -0.7030 C   0  0  0  0  0  0  0  0  0  0  0  0
    3.6900    3.4080   -1.6760 O   0  0  0  0  0  0  0  0  0  0  0  0
    2.6660    4.1270    0.1600 N   0  0  0  0  0  0  0  0  0  0  0  0
    2.9890    5.4560   -0.1260 C   0  0  0  0  0  0  0  0  0  0  0  0
    4.1990    5.7600   -0.7390 C   0  0  0  0  0  0  0  0  0  0  0  0
    4.5170    7.0700   -1.0280 C   0  0  0  0  0  0  0  0  0  0  0  0
    3.6280    8.0910   -0.6940 C   0  0  0  0  0  0  0  0  0  0  0  0
    2.4180    7.7840   -0.0740 C   0  0  0  0  0  0  0  0  0  0  0  0
    2.1020    6.4720    0.2070 C   0  0  0  0  0  0  0  0  0  0  0  0
    3.9710    9.5020   -0.9980 C   0  0  0  0  0  0  0  0  0  0  0  0
    5.0330   10.1210   -0.3400 C   0  0  0  0  0  0  0  0  0  0  0  0
    5.3470   11.4340   -0.6260 C   0  0  0  0  0  0  0  0  0  0  0  0
    4.6100   12.1350   -1.5640 C   0  0  0  0  0  0  0  0  0  0  0  0
    3.5560   11.5260   -2.2200 C   0  0  0  0  0  0  0  0  0  0  0  0
    3.2360   10.2120   -1.9460 C   0  0  0  0  0  0  0  0  0  0  0  0
    1.8980    9.4350   -2.7880 S   0  0  0  0  0  0  0  0  0  0  0  0
    1.0860    8.8310   -1.7900 O   0  0  0  0  0  0  0  0  0  0  0  0
    1.3890   10.3890   -3.7090 O   0  0  0  0  0  0  0  0  0  0  0  0
    2.5360    8.2010   -3.6880 N   0  0  0  0  0  0  0  0  0  0  0  0
    1.3540   -1.9760   -1.8900 H   0  0  0  0  0  0  0  0  0  0  0  0
    3.1310   -1.9960   -1.7920 H   0  0  0  0  0  0  0  0  0  0  0  0
    2.1570   -2.5450   -0.4080 H   0  0  0  0  0  0  0  0  0  0  0  0
    3.3730    0.6760   -2.1910 H   0  0  0  0  0  0  0  0  0  0  0  0
    3.2360    2.1700    2.6370 H   0  0  0  0  0  0  0  0  0  0  0  0
    3.6120    3.3650    4.7750 H   0  0  0  0  0  0  0  0  0  0  0  0
    2.7320    4.7240    6.5950 H   0  0  0  0  0  0  0  0  0  0  0  0
    0.3730    5.4110    6.6270 H   0  0  0  0  0  0  0  0  0  0  0  0
   -1.1450    4.7510    4.8400 H   0  0  0  0  0  0  0  0  0  0  0  0
   -1.5270    3.5580    2.7080 H   0  0  0  0  0  0  0  0  0  0  0  0
    2.1960    3.9070    0.9800 H   0  0  0  0  0  0  0  0  0  0  0  0
    4.8880    4.9680   -0.9940 H   0  0  0  0  0  0  0  0  0  0  0  0
    5.4550    7.3050   -1.5080 H   0  0  0  0  0  0  0  0  0  0  0  0
    1.7280    8.5740    0.1850 H   0  0  0  0  0  0  0  0  0  0  0  0
    1.1640    6.2350    0.6880 H   0  0  0  0  0  0  0  0  0  0  0  0
    5.6080    9.5740    0.3930 H   0  0  0  0  0  0  0  0  0  0  0  0
    6.1690   11.9140   -0.1180 H   0  0  0  0  0  0  0  0  0  0  0  0
    4.8600   13.1630   -1.7850 H   0  0  0  0  0  0  0  0  0  0  0  0
    2.9850   12.0780   -2.9510 H   0  0  0  0  0  0  0  0  0  0  0  0
    3.4920    8.0330   -3.6740 H   0  0  0  0  0  0  0  0  0  0  0  0
    1.9550    7.6450   -4.2310 H   0  0  0  0  0  0  0  0  0  0  0  0
  1  2  1  0  0  0  0
  1 37  1  0  0  0  0
  1 38  1  0  0  0  0
  1 39  1  0  0  0  0
  2  3  1  0  0  0  0
  2  6  2  0  0  0  0
  3  4  2  0  0  0  0
  3 40  1  0  0  0  0
  4  5  1  0  0  0  0
  4 18  1  0  0  0  0
  5  6  1  0  0  0  0
  5  7  1  0  0  0  0
  7  8  2  0  0  0  0
  7 16  1  0  0  0  0
  8  9  1  0  0  0  0
  8 41  1  0  0  0  0
  9 10  2  0  0  0  0
  9 14  1  0  0  0  0
 10 11  1  0  0  0  0
 10 42  1  0  0  0  0
 11 12  2  0  0  0  0
 11 43  1  0  0  0  0
 12 13  1  0  0  0  0
 12 44  1  0  0  0  0
 13 14  2  0  0  0  0
 13 45  1  0  0  0  0
 14 15  1  0  0  0  0
 15 16  2  0  0  0  0
 15 46  1  0  0  0  0
 16 17  1  0  0  0  0
 18 19  2  0  0  0  0
 18 20  1  0  0  0  0
 20 21  1  0  0  0  0
 20 47  1  0  0  0  0
 21 22  2  0  0  0  0
 21 26  1  0  0  0  0
 22 23  1  0  0  0  0
 22 48  1  0  0  0  0
 23 24  2  0  0  0  0
 23 49  1  0  0  0  0
 24 25  1  0  0  0  0
 24 27  1  0  0  0  0
 25 26  2  0  0  0  0
 25 50  1  0  0  0  0
 26 51  1  0  0  0  0
 27 28  2  0  0  0  0
 27 32  1  0  0  0  0
 28 29  1  0  0  0  0
 28 52  1  0  0  0  0
 29 30  2  0  0  0  0
 29 53  1  0  0  0  0
 30 31  1  0  0  0  0
 30 54  1  0  0  0  0
 31 32  2  0  0  0  0
 31 55  1  0  0  0  0
 32 33  1  0  0  0  0
 33 34  2  0  0  0  0
 33 35  2  0  0  0  0
 33 36  1  0  0  0  0
 36 56  1  0  0  0  0
 36 57  1  0  0  0  0
M  END
$$$$
