ZINC01493808
 OpenBabel12162120153D

 56 59  0  0  0  0  0  0  0  0999 V2000
    1.7110    0.6410    2.0100 C   0  0  0  0  0  0  0  0  0  0  0  0
    1.3840    1.5140    0.8800 N   0  0  0  0  0  0  0  0  0  0  0  0
    0.2800    2.4710    0.9890 C   0  0  0  0  0  0  0  0  0  0  0  0
    0.7770    3.7390    1.6340 C   0  0  0  0  0  0  0  0  0  0  0  0
    2.0960    3.8940    1.9180 C   0  0  0  0  0  0  0  0  0  0  0  0
    2.1670    5.4730    2.6300 S   0  0  0  0  0  0  0  0  0  0  0  0
    0.4330    5.8860    2.5400 C   0  0  0  0  0  0  0  0  0  0  0  0
   -0.1000    4.7490    1.9470 C   0  0  0  0  0  0  0  0  0  0  0  0
   -1.7980    4.6110    1.6170 Cl  0  0  0  0  0  0  0  0  0  0  0  0
   -0.2490    7.1050    2.9770 C   0  0  0  0  0  0  0  0  0  0  0  0
   -1.4540    7.2120    2.8350 O   0  0  0  0  0  0  0  0  0  0  0  0
    0.4560    8.1080    3.5370 N   0  0  0  0  0  0  0  0  0  0  0  0
   -0.1720    9.3140    3.8440 C   0  0  0  0  0  0  0  0  0  0  0  0
    0.4040   10.5290    3.4470 C   0  0  0  0  0  0  0  0  0  0  0  0
   -0.2380   11.7320    3.7570 C   0  0  0  0  0  0  0  0  0  0  0  0
   -1.4250   11.7200    4.4580 C   0  0  0  0  0  0  0  0  0  0  0  0
   -1.9920   10.5180    4.8550 C   0  0  0  0  0  0  0  0  0  0  0  0
   -1.3720    9.3180    4.5520 C   0  0  0  0  0  0  0  0  0  0  0  0
   -1.9340    8.1440    4.9460 O   0  0  0  0  0  0  0  0  0  0  0  0
   -3.1640    8.2240    5.6680 C   0  0  0  0  0  0  0  0  0  0  0  0
   -2.2140   13.2160    4.8460 Cl  0  0  0  0  0  0  0  0  0  0  0  0
    1.6760   10.5380    2.7030 C   0  0  0  0  0  0  0  0  0  0  0  0
    2.1800    9.4900    2.3480 O   0  0  0  0  0  0  0  0  0  0  0  0
    2.2810   11.7070    2.4150 N   0  0  0  0  0  0  0  0  0  0  0  0
    3.4280   11.7230    1.6230 C   0  0  0  0  0  0  0  0  0  0  0  0
    4.1100   12.9180    1.4240 C   0  0  0  0  0  0  0  0  0  0  0  0
    5.2470   12.9200    0.6360 C   0  0  0  0  0  0  0  0  0  0  0  0
    5.6640   11.7210    0.0710 C   0  0  0  0  0  0  0  0  0  0  0  0
    4.9370   10.5710    0.3120 C   0  0  0  0  0  0  0  0  0  0  0  0
    3.8590   10.6000    1.0730 N   0  0  0  0  0  0  0  0  0  0  0  0
    7.0840   11.6680   -0.9270 Cl  0  0  0  0  0  0  0  0  0  0  0  0
    2.1110    1.4350   -0.2820 C   0  0  0  0  0  0  0  0  0  0  0  0
    1.9330    2.2380   -1.2860 N   0  0  0  0  0  0  0  0  0  0  0  0
    2.8880    1.8730   -2.3500 C   0  0  0  0  0  0  0  0  0  0  0  0
    3.8830    0.9600   -1.5930 C   0  0  0  0  0  0  0  0  0  0  0  0
    3.0720    0.5110   -0.4880 O   0  0  0  0  0  0  0  0  0  0  0  0
    1.1410   -0.2850    1.9310 H   0  0  0  0  0  0  0  0  0  0  0  0
    1.4580    1.1440    2.9430 H   0  0  0  0  0  0  0  0  0  0  0  0
    2.7770    0.4140    1.9960 H   0  0  0  0  0  0  0  0  0  0  0  0
   -0.1060    2.6960   -0.0050 H   0  0  0  0  0  0  0  0  0  0  0  0
   -0.5150    2.0410    1.5980 H   0  0  0  0  0  0  0  0  0  0  0  0
    2.9060    3.2010    1.7420 H   0  0  0  0  0  0  0  0  0  0  0  0
    1.4000    7.9900    3.7260 H   0  0  0  0  0  0  0  0  0  0  0  0
    0.1990   12.6710    3.4500 H   0  0  0  0  0  0  0  0  0  0  0  0
   -2.9220   10.5190    5.4040 H   0  0  0  0  0  0  0  0  0  0  0  0
   -3.0120    8.7970    6.5830 H   0  0  0  0  0  0  0  0  0  0  0  0
   -3.9160    8.7170    5.0520 H   0  0  0  0  0  0  0  0  0  0  0  0
   -3.5030    7.2190    5.9200 H   0  0  0  0  0  0  0  0  0  0  0  0
    1.9180   12.5380    2.7600 H   0  0  0  0  0  0  0  0  0  0  0  0
    3.7580   13.8320    1.8780 H   0  0  0  0  0  0  0  0  0  0  0  0
    5.7980   13.8330    0.4630 H   0  0  0  0  0  0  0  0  0  0  0  0
    5.2560    9.6370   -0.1250 H   0  0  0  0  0  0  0  0  0  0  0  0
    3.3920    2.7560   -2.7440 H   0  0  0  0  0  0  0  0  0  0  0  0
    2.3870    1.3250   -3.1480 H   0  0  0  0  0  0  0  0  0  0  0  0
    4.7450    1.5270   -1.2410 H   0  0  0  0  0  0  0  0  0  0  0  0
    4.1960    0.1210   -2.2150 H   0  0  0  0  0  0  0  0  0  0  0  0
  1  2  1  0  0  0  0
  1 37  1  0  0  0  0
  1 38  1  0  0  0  0
  1 39  1  0  0  0  0
  2  3  1  0  0  0  0
  2 32  1  0  0  0  0
  3  4  1  0  0  0  0
  3 40  1  0  0  0  0
  3 41  1  0  0  0  0
  4  5  2  0  0  0  0
  4  8  1  0  0  0  0
  5  6  1  0  0  0  0
  5 42  1  0  0  0  0
  6  7  1  0  0  0  0
  7  8  2  0  0  0  0
  7 10  1  0  0  0  0
  8  9  1  0  0  0  0
 10 11  2  0  0  0  0
 10 12  1  0  0  0  0
 12 13  1  0  0  0  0
 12 43  1  0  0  0  0
 13 14  2  0  0  0  0
 13 18  1  0  0  0  0
 14 15  1  0  0  0  0
 14 22  1  0  0  0  0
 15 16  2  0  0  0  0
 15 44  1  0  0  0  0
 16 17  1  0  0  0  0
 16 21  1  0  0  0  0
 17 18  2  0  0  0  0
 17 45  1  0  0  0  0
 18 19  1  0  0  0  0
 19 20  1  0  0  0  0
 20 46  1  0  0  0  0
 20 47  1  0  0  0  0
 20 48  1  0  0  0  0
 22 23  2  0  0  0  0
 22 24  1  0  0  0  0
 24 25  1  0  0  0  0
 24 49  1  0  0  0  0
 25 26  2  0  0  0  0
 25 30  1  0  0  0  0
 26 27  1  0  0  0  0
 26 50  1  0  0  0  0
 27 28  2  0  0  0  0
 27 51  1  0  0  0  0
 28 29  1  0  0  0  0
 28 31  1  0  0  0  0
 29 30  2  0  0  0  0
 29 52  1  0  0  0  0
 32 33  2  0  0  0  0
 32 36  1  0  0  0  0
 33 34  1  0  0  0  0
 34 35  1  0  0  0  0
 34 53  1  0  0  0  0
 34 54  1  0  0  0  0
 35 36  1  0  0  0  0
 35 55  1  0  0  0  0
 35 56  1  0  0  0  0
M  END
$$$$
