ZINC00011462
 OpenBabel12132116373D

 41 43  0  0  0  0  0  0  0  0999 V2000
    1.7961    0.6232    1.1489 C   0  0  0  0  0  0  0  0  0  0  0  0
    3.1107    0.2801    0.5057 C   0  0  0  0  0  0  0  0  0  0  0  0
    4.1567    1.2085    0.6708 C   0  0  0  0  0  0  0  0  0  0  0  0
    5.4117    0.9733    0.1233 C   0  0  0  0  0  0  0  0  0  0  0  0
    5.6556   -0.1775   -0.6113 C   0  0  0  0  0  0  0  0  0  0  0  0
    4.6387   -1.1281   -0.7513 C   0  0  0  0  0  0  0  0  0  0  0  0
    3.3714   -0.9190   -0.1850 C   0  0  0  0  0  0  0  0  0  0  0  0
    2.3607   -1.8993   -0.3257 N   0  0  0  0  0  0  0  0  0  0  0  0
    2.5754   -3.2520   -0.0904 C   0  0  0  0  0  0  0  0  0  0  0  0
    3.6397   -3.7710    0.2221 O   0  0  0  0  0  0  0  0  0  0  0  0
    1.3423   -4.0933   -0.1142 C   0  0  0  0  0  0  0  0  0  0  0  0
    0.3395   -3.8735   -1.0857 C   0  0  0  0  0  0  0  0  0  0  0  0
   -0.8447   -4.6228   -1.0790 C   0  0  0  0  0  0  0  0  0  0  0  0
   -1.0069   -5.5870   -0.0964 C   0  0  0  0  0  0  0  0  0  0  0  0
    0.0100   -5.8247    0.8273 C   0  0  0  0  0  0  0  0  0  0  0  0
    1.1886   -5.1051    0.8459 C   0  0  0  0  0  0  0  0  0  0  0  0
   -0.3574   -6.8659    1.6681 N   0  0  0  0  0  0  0  0  0  0  0  0
   -1.6110   -7.3742    1.3500 C   0  0  0  0  0  0  0  0  0  0  0  0
   -2.1576   -8.3078    1.9016 O   0  0  0  0  0  0  0  0  0  0  0  0
   -2.1778   -6.5072    0.1922 C   0  0  0  0  0  0  0  0  0  0  0  0
   -2.5602   -7.3793   -1.0000 C   0  0  0  0  0  0  0  0  0  0  0  0
   -3.3839   -5.7214    0.7125 C   0  0  0  0  0  0  0  0  0  0  0  0
    6.3817    1.9066    0.3383 O   0  0  0  0  0  0  0  0  0  0  0  0
    1.9476    0.8442    2.2112 H   0  0  0  0  0  0  0  0  0  0  0  0
    1.3661    1.5034    0.6600 H   0  0  0  0  0  0  0  0  0  0  0  0
    1.0595   -0.1800    1.0979 H   0  0  0  0  0  0  0  0  0  0  0  0
    3.9986    2.1160    1.2503 H   0  0  0  0  0  0  0  0  0  0  0  0
    6.6206   -0.3577   -1.0739 H   0  0  0  0  0  0  0  0  0  0  0  0
    4.8393   -2.0264   -1.3313 H   0  0  0  0  0  0  0  0  0  0  0  0
    1.4063   -1.5836   -0.2310 H   0  0  0  0  0  0  0  0  0  0  0  0
    0.4875   -3.1297   -1.8647 H   0  0  0  0  0  0  0  0  0  0  0  0
   -1.6105   -4.4498   -1.8298 H   0  0  0  0  0  0  0  0  0  0  0  0
    1.9628   -5.2988    1.5815 H   0  0  0  0  0  0  0  0  0  0  0  0
    0.2167   -7.2599    2.4031 H   0  0  0  0  0  0  0  0  0  0  0  0
   -3.3451   -8.0956   -0.7289 H   0  0  0  0  0  0  0  0  0  0  0  0
   -2.9363   -6.7740   -1.8329 H   0  0  0  0  0  0  0  0  0  0  0  0
   -1.7056   -7.9583   -1.3679 H   0  0  0  0  0  0  0  0  0  0  0  0
   -3.1409   -5.1688    1.6288 H   0  0  0  0  0  0  0  0  0  0  0  0
   -3.7414   -4.9965   -0.0269 H   0  0  0  0  0  0  0  0  0  0  0  0
   -4.2155   -6.3930    0.9553 H   0  0  0  0  0  0  0  0  0  0  0  0
    7.2180    1.5744   -0.0275 H   0  0  0  0  0  0  0  0  0  0  0  0
  1  2  1  0  0  0  0
  1 24  1  0  0  0  0
  1 25  1  0  0  0  0
  1 26  1  0  0  0  0
  2  3  2  0  0  0  0
  2  7  1  0  0  0  0
  3  4  1  0  0  0  0
  3 27  1  0  0  0  0
  4  5  2  0  0  0  0
  4 23  1  0  0  0  0
  5  6  1  0  0  0  0
  5 28  1  0  0  0  0
  6  7  2  0  0  0  0
  6 29  1  0  0  0  0
  7  8  1  0  0  0  0
  8  9  1  0  0  0  0
  8 30  1  0  0  0  0
  9 10  2  0  0  0  0
  9 11  1  0  0  0  0
 11 12  2  0  0  0  0
 11 16  1  0  0  0  0
 12 13  1  0  0  0  0
 12 31  1  0  0  0  0
 13 14  2  0  0  0  0
 13 32  1  0  0  0  0
 14 15  1  0  0  0  0
 14 20  1  0  0  0  0
 15 16  2  0  0  0  0
 15 17  1  0  0  0  0
 16 33  1  0  0  0  0
 17 18  1  0  0  0  0
 17 34  1  0  0  0  0
 18 19  2  0  0  0  0
 18 20  1  0  0  0  0
 20 21  1  0  0  0  0
 20 22  1  0  0  0  0
 21 35  1  0  0  0  0
 21 36  1  0  0  0  0
 21 37  1  0  0  0  0
 22 38  1  0  0  0  0
 22 39  1  0  0  0  0
 22 40  1  0  0  0  0
 23 41  1  0  0  0  0
M  END
$$$$
