ZINC00006108
 OpenBabel12132116373D

 41 44  0  0  0  0  0  0  0  0999 V2000
   11.3970    7.1650   -0.3500 C   0  0  0  0  0  0  0  0  0  0  0  0
   10.9740    6.8840    0.9360 C   0  0  0  0  0  0  0  0  0  0  0  0
   10.3830    5.6670    1.2200 C   0  0  0  0  0  0  0  0  0  0  0  0
   10.2160    4.7300    0.2170 C   0  0  0  0  0  0  0  0  0  0  0  0
   10.6440    5.0080   -1.0680 C   0  0  0  0  0  0  0  0  0  0  0  0
   11.2290    6.2280   -1.3520 C   0  0  0  0  0  0  0  0  0  0  0  0
    9.5720    3.4030    0.5260 C   0  0  0  0  0  0  0  0  0  0  0  0
    8.1230    3.5070    0.3350 N   0  0  0  0  0  0  0  0  0  0  0  0
    7.3360    2.4350    0.5550 C   0  0  0  0  0  0  0  0  0  0  0  0
    7.8280    1.3830    0.9120 O   0  0  0  0  0  0  0  0  0  0  0  0
    5.8720    2.5400    0.3620 C   0  0  0  0  0  0  0  0  0  0  0  0
    4.9920    1.5460    0.5490 N   0  0  0  0  0  0  0  0  0  0  0  0
    3.7760    1.9790    0.2900 C   0  0  0  0  0  0  0  0  0  0  0  0
    2.4540    1.3400    0.3270 C   0  0  0  0  0  0  0  0  0  0  0  0
    1.3830    2.0740    0.0000 C   0  0  0  0  0  0  0  0  0  0  0  0
    1.5510    3.3960   -0.3630 N   0  0  0  0  0  0  0  0  0  0  0  0
    0.7460    3.9360   -0.6070 H   0  0  0  0  0  0  0  0  0  0  0  0
    2.7590    3.9770   -0.3980 C   0  0  0  0  0  0  0  0  0  0  0  0
    2.8500    5.1450   -0.7250 O   0  0  0  0  0  0  0  0  0  0  0  0
    3.8690    3.2940   -0.0780 N   0  0  0  0  0  0  0  0  0  0  0  0
    5.2290    3.6240   -0.0210 N   0  0  0  0  0  0  0  0  0  0  0  0
   -0.0190    1.5230    0.0100 C   0  0  0  0  0  0  0  0  0  0  0  0
    0.0020   -0.0040    0.0020 C   0  0  0  0  0  0  0  0  0  0  0  0
    0.9410   -0.4780    1.1180 C   0  0  0  0  0  0  0  0  0  0  0  0
    2.3710   -0.1070    0.7280 C   0  0  0  0  0  0  0  0  0  0  0  0
   11.8580    8.1160   -0.5720 H   0  0  0  0  0  0  0  0  0  0  0  0
   11.1050    7.6170    1.7190 H   0  0  0  0  0  0  0  0  0  0  0  0
   10.0530    5.4480    2.2240 H   0  0  0  0  0  0  0  0  0  0  0  0
   10.5160    4.2740   -1.8500 H   0  0  0  0  0  0  0  0  0  0  0  0
   11.5590    6.4470   -2.3570 H   0  0  0  0  0  0  0  0  0  0  0  0
    9.7830    3.1290    1.5600 H   0  0  0  0  0  0  0  0  0  0  0  0
    9.9730    2.6410   -0.1410 H   0  0  0  0  0  0  0  0  0  0  0  0
    7.7300    4.3470    0.0500 H   0  0  0  0  0  0  0  0  0  0  0  0
   -0.5510    1.8800   -0.8710 H   0  0  0  0  0  0  0  0  0  0  0  0
   -0.5340    1.8700    0.9060 H   0  0  0  0  0  0  0  0  0  0  0  0
   -1.0030   -0.3860    0.1800 H   0  0  0  0  0  0  0  0  0  0  0  0
    0.3650   -0.3610   -0.9620 H   0  0  0  0  0  0  0  0  0  0  0  0
    0.6770    0.0130    2.0550 H   0  0  0  0  0  0  0  0  0  0  0  0
    0.8590   -1.5590    1.2330 H   0  0  0  0  0  0  0  0  0  0  0  0
    3.0320   -0.2830    1.5770 H   0  0  0  0  0  0  0  0  0  0  0  0
    2.6880   -0.7310   -0.1080 H   0  0  0  0  0  0  0  0  0  0  0  0
  1  2  2  0  0  0  0
  1  6  1  0  0  0  0
  1 26  1  0  0  0  0
  2  3  1  0  0  0  0
  2 27  1  0  0  0  0
  3  4  2  0  0  0  0
  3 28  1  0  0  0  0
  4  5  1  0  0  0  0
  4  7  1  0  0  0  0
  5  6  2  0  0  0  0
  5 29  1  0  0  0  0
  6 30  1  0  0  0  0
  7  8  1  0  0  0  0
  7 31  1  0  0  0  0
  7 32  1  0  0  0  0
  8  9  1  0  0  0  0
  8 33  1  0  0  0  0
  9 10  2  0  0  0  0
  9 11  1  0  0  0  0
 11 12  1  0  0  0  0
 11 21  2  0  0  0  0
 12 13  2  0  0  0  0
 13 14  1  0  0  0  0
 13 20  1  0  0  0  0
 14 15  2  0  0  0  0
 14 25  1  0  0  0  0
 15 16  1  0  0  0  0
 15 22  1  0  0  0  0
 16 17  1  0  0  0  0
 16 18  1  0  0  0  0
 18 19  2  0  0  0  0
 18 20  1  0  0  0  0
 20 21  1  0  0  0  0
 22 23  1  0  0  0  0
 22 34  1  0  0  0  0
 22 35  1  0  0  0  0
 23 24  1  0  0  0  0
 23 36  1  0  0  0  0
 23 37  1  0  0  0  0
 24 25  1  0  0  0  0
 24 38  1  0  0  0  0
 24 39  1  0  0  0  0
 25 40  1  0  0  0  0
 25 41  1  0  0  0  0
M  END
$$$$
