ZINC00002103
 OpenBabel12132116373D

 41 42  0  0  0  0  0  0  0  0999 V2000
   -0.7529   -0.7930   -2.3137 C   0  0  0  0  0  0  0  0  0  0  0  0
   -0.2801   -1.2509   -0.9414 C   0  0  0  0  0  0  0  0  0  0  0  0
    0.8014   -0.3473   -0.3588 C   0  0  0  0  0  0  0  0  0  0  0  0
   -1.3490   -1.6507   -0.0814 O   0  0  0  0  0  0  0  0  0  0  0  0
   -2.1187   -0.8809    0.7273 C   0  0  0  0  0  0  0  0  0  0  0  0
   -2.3355    0.4893    0.6884 C   0  0  0  0  0  0  0  0  0  0  0  0
   -3.1318    1.1100    1.6865 C   0  0  0  0  0  0  0  0  0  0  0  0
   -3.7163    0.3664    2.7316 C   0  0  0  0  0  0  0  0  0  0  0  0
   -3.5931   -1.0224    2.6848 C   0  0  0  0  0  0  0  0  0  0  0  0
   -2.8013   -1.6271    1.6983 C   0  0  0  0  0  0  0  0  0  0  0  0
   -4.3876    1.0737    3.8889 C   0  0  0  0  0  0  0  0  0  0  0  0
   -4.7312    2.2368    3.7947 O   0  0  0  0  0  0  0  0  0  0  0  0
   -4.5093    0.3113    5.0715 N   0  0  0  0  0  0  0  0  0  0  0  0
   -5.2241    0.7464    6.5144 S   0  0  0  0  0  0  0  0  0  0  0  0
   -6.4295    1.4928    6.2858 O   0  0  0  0  0  0  0  0  0  0  0  0
   -5.2362   -0.4868    7.2895 O   0  0  0  0  0  0  0  0  0  0  0  0
   -4.0137    1.8107    7.2684 C   0  0  0  0  0  0  0  0  0  0  0  0
   -3.8556    3.1137    6.7829 C   0  0  0  0  0  0  0  0  0  0  0  0
   -2.7432    3.8543    7.1827 C   0  0  0  0  0  0  0  0  0  0  0  0
   -1.7758    3.2873    8.0146 C   0  0  0  0  0  0  0  0  0  0  0  0
   -2.0675    2.0866    8.6667 C   0  0  0  0  0  0  0  0  0  0  0  0
   -3.1803    1.3340    8.2781 C   0  0  0  0  0  0  0  0  0  0  0  0
   -0.6019    3.9894    8.3177 N   0  0  0  0  0  0  0  0  0  0  0  0
   -1.1150    0.2377   -2.2958 H   0  0  0  0  0  0  0  0  0  0  0  0
   -1.5614   -1.4315   -2.6823 H   0  0  0  0  0  0  0  0  0  0  0  0
    0.0756   -0.8449   -3.0317 H   0  0  0  0  0  0  0  0  0  0  0  0
    0.2359   -2.2030   -1.1298 H   0  0  0  0  0  0  0  0  0  0  0  0
    0.4284    0.6469   -0.1052 H   0  0  0  0  0  0  0  0  0  0  0  0
    1.2325   -0.7858    0.5465 H   0  0  0  0  0  0  0  0  0  0  0  0
    1.6143   -0.2200   -1.0863 H   0  0  0  0  0  0  0  0  0  0  0  0
   -1.9082    1.1031   -0.0985 H   0  0  0  0  0  0  0  0  0  0  0  0
   -3.2799    2.1898    1.6482 H   0  0  0  0  0  0  0  0  0  0  0  0
   -4.1044   -1.6698    3.3911 H   0  0  0  0  0  0  0  0  0  0  0  0
   -2.7015   -2.7105    1.6964 H   0  0  0  0  0  0  0  0  0  0  0  0
   -4.1110   -0.6122    5.1462 H   0  0  0  0  0  0  0  0  0  0  0  0
   -4.5650    3.5298    6.0769 H   0  0  0  0  0  0  0  0  0  0  0  0
   -2.6075    4.8547    6.7809 H   0  0  0  0  0  0  0  0  0  0  0  0
   -1.4042    1.7098    9.4417 H   0  0  0  0  0  0  0  0  0  0  0  0
   -3.3625    0.3730    8.7601 H   0  0  0  0  0  0  0  0  0  0  0  0
    0.1807    3.3608    8.4858 H   0  0  0  0  0  0  0  0  0  0  0  0
   -0.3634    4.6768    7.6076 H   0  0  0  0  0  0  0  0  0  0  0  0
  1  2  1  0  0  0  0
  1 24  1  0  0  0  0
  1 25  1  0  0  0  0
  1 26  1  0  0  0  0
  2  3  1  0  0  0  0
  2  4  1  0  0  0  0
  2 27  1  0  0  0  0
  3 28  1  0  0  0  0
  3 29  1  0  0  0  0
  3 30  1  0  0  0  0
  4  5  1  0  0  0  0
  5  6  2  0  0  0  0
  5 10  1  0  0  0  0
  6  7  1  0  0  0  0
  6 31  1  0  0  0  0
  7  8  2  0  0  0  0
  7 32  1  0  0  0  0
  8  9  1  0  0  0  0
  8 11  1  0  0  0  0
  9 10  2  0  0  0  0
  9 33  1  0  0  0  0
 10 34  1  0  0  0  0
 11 12  2  0  0  0  0
 11 13  1  0  0  0  0
 13 14  1  0  0  0  0
 13 35  1  0  0  0  0
 14 15  2  0  0  0  0
 14 16  2  0  0  0  0
 14 17  1  0  0  0  0
 17 18  2  0  0  0  0
 17 22  1  0  0  0  0
 18 19  1  0  0  0  0
 18 36  1  0  0  0  0
 19 20  2  0  0  0  0
 19 37  1  0  0  0  0
 20 21  1  0  0  0  0
 20 23  1  0  0  0  0
 21 22  2  0  0  0  0
 21 38  1  0  0  0  0
 22 39  1  0  0  0  0
 23 40  1  0  0  0  0
 23 41  1  0  0  0  0
M  END
$$$$
