ZINC00023841
 OpenBabel12132116283D

 40 43  0  0  0  0  0  0  0  0999 V2000
   -7.9450    1.1660    0.9890 C   0  0  0  0  0  0  0  0  0  0  0  0
   -6.7610    0.4540    0.9640 C   0  0  0  0  0  0  0  0  0  0  0  0
   -5.5560    1.1100    1.1390 C   0  0  0  0  0  0  0  0  0  0  0  0
   -5.5370    2.4780    1.3390 C   0  0  0  0  0  0  0  0  0  0  0  0
   -6.7220    3.1890    1.3690 C   0  0  0  0  0  0  0  0  0  0  0  0
   -7.9260    2.5340    1.1890 C   0  0  0  0  0  0  0  0  0  0  0  0
   -4.2240    3.1930    1.5300 C   0  0  0  0  0  0  0  0  0  0  0  0
   -3.7210    3.6120    0.2600 O   0  0  0  0  0  0  0  0  0  0  0  0
   -2.5410    4.2740    0.2540 C   0  0  0  0  0  0  0  0  0  0  0  0
   -2.4940    5.6750    0.3650 C   0  0  0  0  0  0  0  0  0  0  0  0
   -3.4830    6.6790    0.4940 C   0  0  0  0  0  0  0  0  0  0  0  0
   -2.8890    7.8350    0.5580 N   0  0  0  0  0  0  0  0  0  0  0  0
   -1.5030    7.6600    0.4760 N   0  0  0  0  0  0  0  0  0  0  0  0
   -3.3530    8.7160    0.6520 H   0  0  0  0  0  0  0  0  0  0  0  0
   -1.2450    6.3230    0.3560 C   0  0  0  0  0  0  0  0  0  0  0  0
   -0.1200    5.6200    0.2450 N   0  0  0  0  0  0  0  0  0  0  0  0
   -0.1240    4.3120    0.1450 C   0  0  0  0  0  0  0  0  0  0  0  0
   -1.3230    3.5840    0.1390 C   0  0  0  0  0  0  0  0  0  0  0  0
   -1.3050    2.1170    0.0190 C   0  0  0  0  0  0  0  0  0  0  0  0
   -2.3380    1.4850    0.1290 O   0  0  0  0  0  0  0  0  0  0  0  0
   -0.0310    1.4120   -0.2350 C   0  0  0  0  0  0  0  0  0  0  0  0
    0.9450    1.9960   -1.0440 C   0  0  0  0  0  0  0  0  0  0  0  0
    2.1300    1.3300   -1.2810 C   0  0  0  0  0  0  0  0  0  0  0  0
    2.3520    0.0860   -0.7190 C   0  0  0  0  0  0  0  0  0  0  0  0
    1.3880   -0.5000    0.0840 C   0  0  0  0  0  0  0  0  0  0  0  0
    0.1990    0.1550    0.3290 C   0  0  0  0  0  0  0  0  0  0  0  0
   -8.8860    0.6540    0.8520 H   0  0  0  0  0  0  0  0  0  0  0  0
   -6.7760   -0.6140    0.8080 H   0  0  0  0  0  0  0  0  0  0  0  0
   -4.6310    0.5540    1.1200 H   0  0  0  0  0  0  0  0  0  0  0  0
   -6.7070    4.2570    1.5300 H   0  0  0  0  0  0  0  0  0  0  0  0
   -8.8520    3.0900    1.2080 H   0  0  0  0  0  0  0  0  0  0  0  0
   -3.5080    2.5190    2.0000 H   0  0  0  0  0  0  0  0  0  0  0  0
   -4.3750    4.0650    2.1670 H   0  0  0  0  0  0  0  0  0  0  0  0
   -4.5490    6.5140    0.5330 H   0  0  0  0  0  0  0  0  0  0  0  0
    0.8150    3.7850    0.0600 H   0  0  0  0  0  0  0  0  0  0  0  0
    0.7730    2.9680   -1.4830 H   0  0  0  0  0  0  0  0  0  0  0  0
    2.8860    1.7810   -1.9070 H   0  0  0  0  0  0  0  0  0  0  0  0
    3.2810   -0.4320   -0.9070 H   0  0  0  0  0  0  0  0  0  0  0  0
    1.5680   -1.4720    0.5190 H   0  0  0  0  0  0  0  0  0  0  0  0
   -0.5520   -0.3030    0.9560 H   0  0  0  0  0  0  0  0  0  0  0  0
  1  2  2  0  0  0  0
  1  6  1  0  0  0  0
  1 27  1  0  0  0  0
  2  3  1  0  0  0  0
  2 28  1  0  0  0  0
  3  4  2  0  0  0  0
  3 29  1  0  0  0  0
  4  5  1  0  0  0  0
  4  7  1  0  0  0  0
  5  6  2  0  0  0  0
  5 30  1  0  0  0  0
  6 31  1  0  0  0  0
  7  8  1  0  0  0  0
  7 32  1  0  0  0  0
  7 33  1  0  0  0  0
  8  9  1  0  0  0  0
  9 10  1  0  0  0  0
  9 18  2  0  0  0  0
 10 11  2  0  0  0  0
 10 15  1  0  0  0  0
 11 12  1  0  0  0  0
 11 34  1  0  0  0  0
 12 13  1  0  0  0  0
 12 14  1  0  0  0  0
 13 15  2  0  0  0  0
 15 16  1  0  0  0  0
 16 17  2  0  0  0  0
 17 18  1  0  0  0  0
 17 35  1  0  0  0  0
 18 19  1  0  0  0  0
 19 20  2  0  0  0  0
 19 21  1  0  0  0  0
 21 22  2  0  0  0  0
 21 26  1  0  0  0  0
 22 23  1  0  0  0  0
 22 36  1  0  0  0  0
 23 24  2  0  0  0  0
 23 37  1  0  0  0  0
 24 25  1  0  0  0  0
 24 38  1  0  0  0  0
 25 26  2  0  0  0  0
 25 39  1  0  0  0  0
 26 40  1  0  0  0  0
M  END
$$$$
