
 OpenBabel03212214533D

 27 29  0  0  1  0  0  0  0  0999 V2000
    0.5614   -2.7744   -0.3887 N   0  0  0  0  0  0  0  0  0  0  0  0
   -0.0302   -1.5545   -0.3115 C   0  0  0  0  0  0  0  0  0  0  0  0
    0.7459   -0.3865   -0.4227 C   0  0  0  0  0  0  0  0  0  0  0  0
    2.1209   -0.4812   -0.6295 C   0  0  0  0  0  0  0  0  0  0  0  0
    2.7139   -1.7300   -0.7143 C   0  0  0  0  0  0  0  0  0  0  0  0
    1.8967   -2.8351   -0.5874 C   0  0  0  0  0  0  0  0  0  0  0  0
    0.1467    0.8752   -0.3369 C   0  0  0  0  0  0  0  0  0  0  0  0
   -1.2256    0.9830   -0.1499 C   0  0  0  0  0  0  0  0  0  0  0  0
   -2.0494   -0.1379   -0.0121 C   0  0  0  0  0  0  0  0  0  0  0  0
   -1.4212   -1.4041   -0.1064 C   0  0  0  0  0  0  0  0  0  0  0  0
   -2.1666   -2.5569    0.0009 O   0  0  0  0  0  0  0  0  0  0  0  0
   -3.5653    0.0018    0.1593 C   0  0  3  0  0  0  0  0  0  0  0  0
   -4.0337   -0.7669    1.3190 N   0  0  0  0  0  0  0  0  0  0  0  0
   -5.3661   -1.1078    1.4641 C   0  0  0  0  0  0  0  0  0  0  0  0
   -6.1930   -0.9778    0.5698 O   0  0  0  0  0  0  0  0  0  0  0  0
   -5.7079   -1.6914    2.8056 C   0  0  0  0  0  0  0  0  0  0  0  0
   -4.1381    1.4608    0.1386 C   0  0  0  0  0  0  0  0  0  0  0  0
   -3.6662    2.4768    1.1714 C   0  0  0  0  0  0  0  0  0  0  0  0
   -3.5278    3.8258    0.7842 C   0  0  0  0  0  0  0  0  0  0  0  0
   -3.0857    4.8179    1.6802 C   0  0  0  0  0  0  0  0  0  0  0  0
   -2.7491    4.4495    2.9892 C   0  0  0  0  0  0  0  0  0  0  0  0
   -2.8990    3.1161    3.3799 C   0  0  0  0  0  0  0  0  0  0  0  0
   -3.3607    2.1455    2.4896 C   0  0  0  0  0  0  0  0  0  0  0  0
   -2.3451    5.2560    4.0194 O   0  0  0  0  0  0  0  0  0  0  0  0
   -1.6074    6.4228    3.6907 C   0  0  0  0  0  0  0  0  0  0  0  0
   -2.9469    6.1281    1.3045 O   0  0  0  0  0  0  0  0  0  0  0  0
   -3.8582    6.5929    0.3131 C   0  0  0  0  0  0  0  0  0  0  0  0
  1  2  1  0  0  0  0
  1  6  2  0  0  0  0
  2  3  1  0  0  0  0
  2 10  2  0  0  0  0
  3  4  1  0  0  0  0
  3  7  2  0  0  0  0
  4  5  2  0  0  0  0
  5  6  1  0  0  0  0
  7  8  1  0  0  0  0
  8  9  2  0  0  0  0
  9 10  1  0  0  0  0
  9 12  1  0  0  0  0
 10 11  1  0  0  0  0
 12 13  1  0  0  0  0
 12 17  1  0  0  0  0
 13 14  1  0  0  0  0
 14 15  2  0  0  0  0
 14 16  1  0  0  0  0
 17 18  1  0  0  0  0
 18 19  1  0  0  0  0
 18 23  2  0  0  0  0
 19 20  2  0  0  0  0
 20 21  1  0  0  0  0
 20 26  1  0  0  0  0
 21 22  2  0  0  0  0
 21 24  1  0  0  0  0
 22 23  1  0  0  0  0
 24 25  1  0  0  0  0
 26 27  1  0  0  0  0
M  END
$$$$
