
 OpenBabel03212214523D

 20 21  0  0  0  0  0  0  0  0999 V2000
    1.1971   -1.7051   -0.2537 N   0  0  0  0  0  0  0  0  0  0  0  0
    1.7580   -0.4800   -0.1377 C   0  0  0  0  0  0  0  0  0  0  0  0
    2.6914    0.0302   -1.0244 C   0  0  0  0  0  0  0  0  0  0  0  0
    3.0747   -0.7640   -2.0966 C   0  0  0  0  0  0  0  0  0  0  0  0
    2.5127   -2.0301   -2.2416 C   0  0  0  0  0  0  0  0  0  0  0  0
    1.5808   -2.4635   -1.3042 C   0  0  0  0  0  0  0  0  0  0  0  0
    0.8597   -4.0861   -1.5022 S   0  0  0  0  0  0  0  0  0  0  0  0
   -0.2356   -4.1406   -0.0402 C   0  0  0  0  0  0  0  0  0  0  0  0
   -1.0353   -5.4451    0.0325 C   0  0  0  0  0  0  0  0  0  0  0  0
   -0.1548   -6.6151    0.1941 N   0  0  0  0  0  0  0  0  0  0  0  0
   -0.8606   -8.1375    0.2582 S   0  0  0  0  0  0  0  0  0  0  0  0
    0.1401   -9.0223    0.8119 O   0  0  0  0  0  0  0  0  0  0  0  0
   -2.1655   -7.9945    0.8655 O   0  0  0  0  0  0  0  0  0  0  0  0
   -1.0703   -8.5858   -1.4484 C   0  0  0  0  0  0  0  0  0  0  0  0
    0.0555   -8.8075   -2.2495 C   0  0  0  0  0  0  0  0  0  0  0  0
   -0.1108   -9.2606   -3.5632 C   0  0  0  0  0  0  0  0  0  0  0  0
   -1.3958   -9.4916   -4.0582 C   0  0  0  0  0  0  0  0  0  0  0  0
   -2.5180   -9.2649   -3.2604 C   0  0  0  0  0  0  0  0  0  0  0  0
   -2.3563   -8.8099   -1.9501 C   0  0  0  0  0  0  0  0  0  0  0  0
   -1.6189  -10.1416   -5.8197 Br  0  0  0  0  0  0  0  0  0  0  0  0
  1  2  1  0  0  0  0
  1  6  2  0  0  0  0
  2  3  2  0  0  0  0
  3  4  1  0  0  0  0
  4  5  2  0  0  0  0
  5  6  1  0  0  0  0
  6  7  1  0  0  0  0
  7  8  1  0  0  0  0
  8  9  1  0  0  0  0
  9 10  1  0  0  0  0
 10 11  1  0  0  0  0
 11 12  2  0  0  0  0
 11 13  2  0  0  0  0
 11 14  1  0  0  0  0
 14 15  1  0  0  0  0
 14 19  2  0  0  0  0
 15 16  2  0  0  0  0
 16 17  1  0  0  0  0
 17 18  2  0  0  0  0
 17 20  1  0  0  0  0
 18 19  1  0  0  0  0
M  END
$$$$
