
 OpenBabel03212214523D

 21 23  0  0  0  0  0  0  0  0999 V2000
   -1.4557   -0.0932   -1.0676 Br  0  0  0  0  0  0  0  0  0  0  0  0
    0.4251   -0.0961   -0.9073 C   0  0  0  0  0  0  0  0  0  0  0  0
    1.1265   -1.3050   -0.9751 C   0  0  0  0  0  0  0  0  0  0  0  0
    2.5197   -1.3187   -0.8196 C   0  0  0  0  0  0  0  0  0  0  0  0
    3.2114   -0.1204   -0.5935 C   0  0  0  0  0  0  0  0  0  0  0  0
    2.4906    1.0837   -0.5583 C   0  0  0  0  0  0  0  0  0  0  0  0
    1.1030    1.0983   -0.7106 C   0  0  0  0  0  0  0  0  0  0  0  0
    4.6829   -0.0280   -0.3473 C   0  0  0  0  0  0  0  0  0  0  0  0
    5.2061    1.0854   -0.3542 O   0  0  0  0  0  0  0  0  0  0  0  0
    5.3705   -1.2069   -0.1575 N   0  0  0  0  0  0  0  0  0  0  0  0
    6.7166   -1.2385    0.1204 C   0  0  0  0  0  0  0  0  0  0  0  0
    7.4376   -2.3006   -0.2444 N   0  0  0  0  0  0  0  0  0  0  0  0
    8.6979   -1.9430    0.0351 N   0  0  0  0  0  0  0  0  0  0  0  0
    8.7914   -0.7885    0.7601 C   0  0  0  0  0  0  0  0  0  0  0  0
    7.5083   -0.2853    0.7980 C   0  0  0  0  0  0  0  0  0  0  0  0
   10.0793   -0.2642    1.3219 C   0  0  0  0  0  0  0  0  0  0  0  0
   10.9941    0.2704    0.2070 C   0  0  0  0  0  0  0  0  0  0  0  0
   12.3497    0.7194    0.7425 C   0  0  0  0  0  0  0  0  0  0  0  0
   13.0306   -0.3893    1.5401 C   0  0  0  0  0  0  0  0  0  0  0  0
   12.1425   -0.8691    2.6832 C   0  0  0  0  0  0  0  0  0  0  0  0
   10.7835   -1.3359    2.1723 C   0  0  0  0  0  0  0  0  0  0  0  0
  1  2  1  0  0  0  0
  2  3  1  0  0  0  0
  2  7  2  0  0  0  0
  3  4  2  0  0  0  0
  4  5  1  0  0  0  0
  5  6  2  0  0  0  0
  5  8  1  0  0  0  0
  6  7  1  0  0  0  0
  8  9  2  0  0  0  0
  8 10  1  0  0  0  0
 10 11  1  0  0  0  0
 11 12  2  0  0  0  0
 11 15  1  0  0  0  0
 12 13  1  0  0  0  0
 13 14  1  0  0  0  0
 14 15  2  0  0  0  0
 14 16  1  0  0  0  0
 16 17  1  0  0  0  0
 16 21  1  0  0  0  0
 17 18  1  0  0  0  0
 18 19  1  0  0  0  0
 19 20  1  0  0  0  0
 20 21  1  0  0  0  0
M  END
$$$$
