
 OpenBabel03212214533D

 29 32  0  0  0  0  0  0  0  0999 V2000
    1.0156    4.4808   -3.5527 O   0  0  0  0  0  0  0  0  0  0  0  0
    0.2683    4.7643   -2.4441 C   0  0  0  0  0  0  0  0  0  0  0  0
    0.3975    4.1794   -1.1850 C   0  0  0  0  0  0  0  0  0  0  0  0
   -0.4245    4.5897   -0.1187 C   0  0  0  0  0  0  0  0  0  0  0  0
   -1.3827    5.5891   -0.3018 C   0  0  0  0  0  0  0  0  0  0  0  0
   -1.5270    6.1503   -1.5726 C   0  0  0  0  0  0  0  0  0  0  0  0
   -0.7090    5.7420   -2.6326 C   0  0  0  0  0  0  0  0  0  0  0  0
   -2.2125    6.1099    0.6588 O   0  0  0  0  0  0  0  0  0  0  0  0
   -2.1529    5.5272    1.9554 C   0  0  0  0  0  0  0  0  0  0  0  0
   -3.1759    6.1773    2.8993 C   0  0  0  0  0  0  0  0  0  0  0  0
   -4.2401    5.6273    3.1719 O   0  0  0  0  0  0  0  0  0  0  0  0
   -2.7685    7.4180    3.3807 N   0  0  0  0  0  0  0  0  0  0  0  0
   -3.5284    8.2100    4.2800 C   0  0  0  0  0  0  0  0  0  0  0  0
   -4.1180    7.7373    5.4649 C   0  0  0  0  0  0  0  0  0  0  0  0
   -4.9022    8.6245    6.2350 C   0  0  0  0  0  0  0  0  0  0  0  0
   -5.0587    9.9653    5.8707 C   0  0  0  0  0  0  0  0  0  0  0  0
   -4.4054   10.4550    4.7399 C   0  0  0  0  0  0  0  0  0  0  0  0
   -3.6428    9.5713    3.9559 C   0  0  0  0  0  0  0  0  0  0  0  0
   -4.5435   11.8894    4.3782 C   0  0  0  0  0  0  0  0  0  0  0  0
   -5.5580   12.6509    4.7118 N   0  0  0  0  0  0  0  0  0  0  0  0
   -5.2910   13.8788    4.1776 N   0  0  0  0  0  0  0  0  0  0  0  0
   -5.9436   15.0825    4.1216 C   0  0  0  0  0  0  0  0  0  0  0  0
   -5.1955   15.9386    3.4386 N   0  0  0  0  0  0  0  0  0  0  0  0
   -4.0381   15.2909    3.0310 N   0  0  0  0  0  0  0  0  0  0  0  0
   -4.1415   14.0785    3.4880 C   0  0  0  0  0  0  0  0  0  0  0  0
   -3.2180   12.6535    3.4421 S   0  0  0  0  0  0  0  0  0  0  0  0
   -7.2632   15.3734    4.7157 C   0  0  0  0  0  0  0  0  0  0  0  0
   -3.9272    6.3469    6.0103 C   0  0  0  0  0  0  0  0  0  0  0  0
    2.0751    3.5431   -3.4080 C   0  0  0  0  0  0  0  0  0  0  0  0
  1  2  1  0  0  0  0
  1 29  1  0  0  0  0
  2  3  1  0  0  0  0
  2  7  2  0  0  0  0
  3  4  2  0  0  0  0
  4  5  1  0  0  0  0
  5  6  2  0  0  0  0
  5  8  1  0  0  0  0
  6  7  1  0  0  0  0
  8  9  1  0  0  0  0
  9 10  1  0  0  0  0
 10 11  2  0  0  0  0
 10 12  1  0  0  0  0
 12 13  1  0  0  0  0
 13 14  1  0  0  0  0
 13 18  2  0  0  0  0
 14 15  2  0  0  0  0
 14 28  1  0  0  0  0
 15 16  1  0  0  0  0
 16 17  2  0  0  0  0
 17 18  1  0  0  0  0
 17 19  1  0  0  0  0
 19 20  2  0  0  0  0
 19 26  1  0  0  0  0
 20 21  1  0  0  0  0
 21 22  1  0  0  0  0
 21 25  1  0  0  0  0
 22 23  2  0  0  0  0
 22 27  1  0  0  0  0
 23 24  1  0  0  0  0
 24 25  2  0  0  0  0
 25 26  1  0  0  0  0
M  END
$$$$
