
 OpenBabel03212214533D

 20 22  0  0  0  0  0  0  0  0999 V2000
    1.1707   -0.3400   -0.6508 O   0  0  0  0  0  0  0  0  0  0  0  0
    2.3142   -0.1745   -0.2276 C   0  0  0  0  0  0  0  0  0  0  0  0
    2.9559   -0.9738    0.6831 N   0  0  0  0  0  0  0  0  0  0  0  0
    2.3554   -2.1031    1.1978 C   0  0  0  0  0  0  0  0  0  0  0  0
    2.5386   -2.4460    2.4756 N   0  0  0  0  0  0  0  0  0  0  0  0
    1.6778   -3.4649    2.6541 N   0  0  0  0  0  0  0  0  0  0  0  0
    1.1158   -3.9138    1.4947 C   0  0  0  0  0  0  0  0  0  0  0  0
    1.5297   -3.0364    0.5221 C   0  0  0  0  0  0  0  0  0  0  0  0
    0.1987   -5.1145    1.3718 C   0  0  0  0  0  0  0  0  0  0  0  0
    0.3580   -6.0356    0.1822 C   0  0  0  0  0  0  0  0  0  0  0  0
   -0.8339   -5.1428    0.2658 C   0  0  0  0  0  0  0  0  0  0  0  0
    3.0706    1.0226   -0.6662 C   0  0  0  0  0  0  0  0  0  0  0  0
    2.4121    2.2540   -0.7502 C   0  0  0  0  0  0  0  0  0  0  0  0
    3.0876    3.3654   -1.2563 C   0  0  0  0  0  0  0  0  0  0  0  0
    4.4160    3.2660   -1.6984 C   0  0  0  0  0  0  0  0  0  0  0  0
    5.0625    2.0243   -1.5940 C   0  0  0  0  0  0  0  0  0  0  0  0
    4.4001    0.9053   -1.0773 C   0  0  0  0  0  0  0  0  0  0  0  0
    5.1282    4.4614   -2.3015 C   0  0  0  0  0  0  0  0  0  0  0  0
    6.3214    4.2854   -2.7042 O   0  0  0  0  0  0  0  0  0  0  0  0
    4.4784    5.5565   -2.3593 O   0  5  0  0  0  0  0  0  0  0  0  0
  1  2  2  0  0  0  0
  2  3  1  0  0  0  0
  2 12  1  0  0  0  0
  3  4  1  0  0  0  0
  4  5  2  0  0  0  0
  4  8  1  0  0  0  0
  5  6  1  0  0  0  0
  6  7  1  0  0  0  0
  7  8  2  0  0  0  0
  7  9  1  0  0  0  0
  9 10  1  0  0  0  0
  9 11  1  0  0  0  0
 10 11  1  0  0  0  0
 12 13  1  0  0  0  0
 12 17  2  0  0  0  0
 13 14  2  0  0  0  0
 14 15  1  0  0  0  0
 15 16  2  0  0  0  0
 15 18  1  0  0  0  0
 16 17  1  0  0  0  0
 18 19  2  0  0  0  0
 18 20  1  0  0  0  0
M  CHG  1  20  -1
M  END
$$$$
