
 OpenBabel03212214523D

 23 25  0  0  0  0  0  0  0  0999 V2000
    9.0834    2.3534    6.8529 F   0  0  0  0  0  0  0  0  0  0  0  0
    9.8733    1.2727    7.0403 C   0  0  0  0  0  0  0  0  0  0  0  0
   11.0796    1.6830    7.4902 F   0  0  0  0  0  0  0  0  0  0  0  0
    9.3017    0.5150    8.0034 F   0  0  0  0  0  0  0  0  0  0  0  0
   10.0411    0.4726    5.8797 O   0  0  0  0  0  0  0  0  0  0  0  0
    9.7853    1.0108    4.6529 C   0  0  0  0  0  0  0  0  0  0  0  0
    9.8541    2.3568    4.3208 C   0  0  0  0  0  0  0  0  0  0  0  0
    9.4733    2.7831    3.0414 C   0  0  0  0  0  0  0  0  0  0  0  0
    9.0635    1.8605    2.0690 C   0  0  0  0  0  0  0  0  0  0  0  0
    9.0846    0.4974    2.3818 C   0  0  0  0  0  0  0  0  0  0  0  0
    9.4494    0.0802    3.6651 C   0  0  0  0  0  0  0  0  0  0  0  0
    8.5123    2.3542    0.7549 C   0  0  0  0  0  0  0  0  0  0  0  0
    9.1872    1.8723   -0.5084 C   0  0  0  0  0  0  0  0  0  0  0  0
    8.5017    1.5207   -1.4703 O   0  0  0  0  0  0  0  0  0  0  0  0
   10.5641    1.9295   -0.4968 N   0  0  0  0  0  0  0  0  0  0  0  0
   11.2939    1.5359   -1.5927 C   0  0  0  0  0  0  0  0  0  0  0  0
   12.4508    0.8880   -1.4315 N   0  0  0  0  0  0  0  0  0  0  0  0
   12.7520    0.4762   -2.6787 N   0  0  0  0  0  0  0  0  0  0  0  0
   11.9183    0.9773   -3.6344 C   0  0  0  0  0  0  0  0  0  0  0  0
   10.9741    1.7093   -2.9600 C   0  0  0  0  0  0  0  0  0  0  0  0
   11.9449    0.7464   -5.1279 C   0  0  0  0  0  0  0  0  0  0  0  0
   12.2846   -0.6400   -5.6287 C   0  0  0  0  0  0  0  0  0  0  0  0
   13.2666    0.4665   -5.8094 C   0  0  0  0  0  0  0  0  0  0  0  0
  1  2  1  0  0  0  0
  2  3  1  0  0  0  0
  2  4  1  0  0  0  0
  2  5  1  0  0  0  0
  5  6  1  0  0  0  0
  6  7  1  0  0  0  0
  6 11  2  0  0  0  0
  7  8  2  0  0  0  0
  8  9  1  0  0  0  0
  9 10  2  0  0  0  0
  9 12  1  0  0  0  0
 10 11  1  0  0  0  0
 12 13  1  0  0  0  0
 13 14  2  0  0  0  0
 13 15  1  0  0  0  0
 15 16  1  0  0  0  0
 16 17  2  0  0  0  0
 16 20  1  0  0  0  0
 17 18  1  0  0  0  0
 18 19  1  0  0  0  0
 19 20  2  0  0  0  0
 19 21  1  0  0  0  0
 21 22  1  0  0  0  0
 21 23  1  0  0  0  0
 22 23  1  0  0  0  0
M  END
$$$$
