
 OpenBabel03212214523D

 16 17  0  0  0  0  0  0  0  0999 V2000
   -1.5313   -0.2740   -0.0578 Br  0  0  0  0  0  0  0  0  0  0  0  0
    0.3531   -0.1945    0.0265 C   0  0  0  0  0  0  0  0  0  0  0  0
    1.1218   -1.0359   -0.7790 C   0  0  0  0  0  0  0  0  0  0  0  0
    2.5198   -1.0041   -0.6945 C   0  0  0  0  0  0  0  0  0  0  0  0
    3.1521   -0.1364    0.2067 C   0  0  0  0  0  0  0  0  0  0  0  0
    2.3614    0.7259    0.9853 C   0  0  0  0  0  0  0  0  0  0  0  0
    0.9681    0.6968    0.8998 C   0  0  0  0  0  0  0  0  0  0  0  0
    4.6327   -0.0827    0.4178 C   0  0  0  0  0  0  0  0  0  0  0  0
    5.0927    0.8500    1.0725 O   0  0  0  0  0  0  0  0  0  0  0  0
    5.3858   -1.0810   -0.1574 N   0  0  0  0  0  0  0  0  0  0  0  0
    6.7479   -1.1751   -0.0066 C   0  0  0  0  0  0  0  0  0  0  0  0
    7.4717   -1.7760   -0.9534 N   0  0  0  0  0  0  0  0  0  0  0  0
    8.7404   -1.5713   -0.5644 N   0  0  0  0  0  0  0  0  0  0  0  0
    8.8509   -1.0181    0.6821 C   0  0  0  0  0  0  0  0  0  0  0  0
    7.5623   -0.7181    1.0537 C   0  0  0  0  0  0  0  0  0  0  0  0
   10.1433   -0.8221    1.3636 C   0  0  0  0  0  0  0  0  0  0  0  0
  1  2  1  0  0  0  0
  2  3  1  0  0  0  0
  2  7  2  0  0  0  0
  3  4  2  0  0  0  0
  4  5  1  0  0  0  0
  5  6  2  0  0  0  0
  5  8  1  0  0  0  0
  6  7  1  0  0  0  0
  8  9  2  0  0  0  0
  8 10  1  0  0  0  0
 10 11  1  0  0  0  0
 11 12  2  0  0  0  0
 11 15  1  0  0  0  0
 12 13  1  0  0  0  0
 13 14  1  0  0  0  0
 14 15  2  0  0  0  0
 14 16  1  0  0  0  0
M  END
$$$$
