@<TRIPOS>MOLECULE
BDB50293153
 25 28 0 0 0
SMALL
USER_CHARGES

@<TRIPOS>ATOM
      1 C1        -13.3900  206.0400  111.0400 C.2     1  UNK01       0.0000
      2 C2        -13.5800  206.5400  109.7700 C.2     1  UNK01       0.0000
      3 C3        -12.5000  207.1800  109.2200 C.2     1  UNK01       0.0000
      4 N1        -11.3200  207.3100  109.8500 N.2     1  UNK01       0.0000
      5 C4        -11.2000  206.7800  111.0800 C.cat   1  UNK01       0.0000
      6 N2        -12.2100  206.1400  111.6900 N.2     1  UNK01       0.0000
      7 N3        -15.6000  203.7800  112.9500 N.2     1  UNK01       0.0000
      8 C5        -14.4100  204.1300  112.4500 C.2     1  UNK01       0.0000
      9 C6        -14.4600  205.3400  111.7200 C.2     1  UNK01       0.0000
     10 N4        -16.4200  204.7800  112.5800 N.pl3   1  UNK01       0.0000
     11 C7        -15.7700  205.7600  111.8400 C.2     1  UNK01       0.0000
     12 C8        -16.5400  206.8800  111.4500 C.2     1  UNK01       0.0000
     13 C9        -17.8400  206.9300  111.7700 C.2     1  UNK01       0.0000
     14 C10       -18.3900  205.7800  112.5300 C.2     1  UNK01       0.0000
     15 N5        -17.7300  204.7400  112.9300 N.2     1  UNK01       0.0000
     16 N6        -10.0200  206.8700  111.8100 N.pl3   1  UNK01       0.0000
     17 C11        -9.6900  207.4300  113.0500 C.2     1  UNK01       0.0000
     18 C12        -8.5000  208.1300  113.2900 C.2     1  UNK01       0.0000
     19 C13        -8.2300  208.6600  114.5600 C.2     1  UNK01       0.0000
     20 C14        -9.1400  208.5000  115.6100 C.2     1  UNK01       0.0000
     21 C15       -10.3200  207.8100  115.3800 C.2     1  UNK01       0.0000
     22 C16       -10.5900  207.2800  114.1200 C.2     1  UNK01       0.0000
     23 N7         -6.9800  209.3900  114.7900 N.pl3   1  UNK01       0.0000
     24 O1         -7.0000  210.3200  115.6100 O.2     1  UNK01       0.0000
     25 O2         -5.9800  209.0300  114.1500 O.2     1  UNK01       0.0000
@<TRIPOS>UNITY_ATOM_ATTR
24 1
charge -1
@<TRIPOS>BOND
     1     1     2    1
     2     1     6    2
     3     1     9    1
     4     2     3    2
     5     3     4    1
     6     4     5    2
     7     5     6    1
     8     5    16    1
     9     7     8    2
    10     7    10    1
    11     8     9    1
    12     9    11    2
    13    10    11    1
    14    10    15    1
    15    11    12    1
    16    12    13    2
    17    13    14    1
    18    14    15    2
    19    16    17    1
    20    17    18    1
    21    17    22    2
    22    18    19    2
    23    19    20    1
    24    19    23    1
    25    20    21    2
    26    21    22    1
    27    23    24    1
    28    23    25    2
