# created with PyMOL 2.5.0
@<TRIPOS>MOLECULE
BDB50293153
36 39 1                 
SMALL
USER_CHARGES
@<TRIPOS>ATOM
1	 H11	-11.860	209.160	114.710	 H	1	UNK0	0.000	
2	 H04	-15.830	208.350	111.000	 H	1	UNK0	0.000	
3	 H05	-18.200	207.610	111.100	 H	1	UNK0	0.000	
4	 H06	-18.810	205.580	112.340	 H	1	UNK0	0.000	
5	 H02	-12.270	210.480	110.230	 H	1	UNK0	0.000	
6	 H01	-13.860	208.530	110.050	 H	1	UNK0	0.000	
7	 H08	-7.920	207.490	114.700	 H	1	UNK0	0.000	
8	 H09	-9.970	208.240	118.420	 H	1	UNK0	0.000	
9	 H03	-12.350	204.250	112.130	 H	1	UNK0	0.000	
10	 H10	-11.920	209.080	117.160	 H	1	UNK0	0.000	
11	 H07	-9.570	209.450	112.930	 H	1	UNK0	0.000	
12	  C1	-12.710	207.370	111.490	C.2	1	UNK0	0.000	
13	  C2	-13.010	208.500	110.710	C.2	1	UNK0	0.000	
14	  C3	-12.110	209.560	110.790	C.2	1	UNK0	0.000	
15	  N1	-11.000	209.520	111.560	N.2	1	UNK0	0.000	
16	  C4	-10.820	208.390	112.290	C.2	1	UNK0	0.000	
17	  N2	-11.600	207.300	112.260	N.2	1	UNK0	0.000	
18	  N3	-14.530	204.020	112.320	N.2	1	UNK0	0.000	
19	  C5	-13.310	204.730	112.010	C.2	1	UNK0	0.000	
20	  C6	-13.630	206.240	111.540	C.2	1	UNK0	0.000	
21	  N4	-15.630	205.050	112.120	N.pl3	1	UNK0	0.000	
22	  C7	-15.110	206.390	111.610	C.2	1	UNK0	0.000	
23	  C8	-16.100	207.360	111.330	C.2	1	UNK0	0.000	
24	  C9	-17.380	206.970	111.400	C.2	1	UNK0	0.000	
25	 C10	-17.740	205.700	112.110	C.2	1	UNK0	0.000	
26	  N5	-16.930	204.700	112.340	N.2	1	UNK0	0.000	
27	  N6	-9.760	208.480	113.150	N.pl3	1	UNK0	0.000	
28	 C11	-9.890	208.300	114.540	C.2	1	UNK0	0.000	
29	 C12	-8.800	207.820	115.260	C.2	1	UNK0	0.000	
30	 C13	-8.780	207.790	116.670	C.2	1	UNK0	0.000	
31	 C14	-9.940	208.230	117.340	C.2	1	UNK0	0.000	
32	 C15	-11.040	208.710	116.630	C.2	1	UNK0	0.000	
33	 C16	-11.010	208.760	115.240	C.2	1	UNK0	0.000	
34	  N7	-7.620	207.360	117.370	N.pl3	1	UNK0	0.000	
35	  O1	-7.500	207.810	118.810	O.2	1	UNK0	0.000	
36	  O2	-6.320	207.560	116.630	O.2	1	UNK0	0.000	
@<TRIPOS>BOND
1 12 13 1
2 12 17 2
3 12 20 1
4 6 13 1
5 13 14 2
6 5 14 1
7 14 15 1
8 15 16 2
9 16 17 1
10 16 27 1
11 18 19 2
12 18 21 1
13 9 19 1
14 19 20 1
15 20 22 2
16 21 22 1
17 21 26 1
18 22 23 1
19 2 23 1
20 23 24 2
21 3 24 1
22 24 25 1
23 4 25 1
24 25 26 2
25 11 27 1
26 27 28 1
27 28 29 1
28 28 33 2
29 7 29 1
30 29 30 2
31 30 31 1
32 30 34 1
33 8 31 1
34 31 32 2
35 10 32 1
36 32 33 1
37 1 33 1
38 34 35 1
39 34 36 2
@<TRIPOS>SUBSTRUCTURE
1	UNK0	1	GROUP	1 ****	UNK
