@<TRIPOS>MOLECULE
BDB50293153
 25 28 0 0 0
SMALL
USER_CHARGES

@<TRIPOS>ATOM
      1 C1        -12.6100  205.9100  111.5600 C.2     1  UNK01       0.0000
      2 C2        -12.6900  206.2200  110.2100 C.2     1  UNK01       0.0000
      3 C3        -11.6400  206.9600  109.6700 C.2     1  UNK01       0.0000
      4 N1        -10.5500  207.3100  110.3800 N.2     1  UNK01       0.0000
      5 C4        -10.5200  206.9400  111.6800 C.cat   1  UNK01       0.0000
      6 N2        -11.5200  206.2500  112.3000 N.2     1  UNK01       0.0000
      7 N3        -14.9200  203.6600  113.7800 N.2     1  UNK01       0.0000
      8 C5        -13.6500  204.3200  113.5600 C.2     1  UNK01       0.0000
      9 C6        -13.7000  205.2500  112.2400 C.2     1  UNK01       0.0000
     10 N4        -15.8200  204.1800  112.6600 N.pl3   1  UNK01       0.0000
     11 C7        -15.1100  205.1500  111.7300 C.2     1  UNK01       0.0000
     12 C8        -15.9300  205.7600  110.7500 C.2     1  UNK01       0.0000
     13 C9        -17.2400  205.4600  110.7500 C.2     1  UNK01       0.0000
     14 C10       -17.7900  204.4600  111.7200 C.2     1  UNK01       0.0000
     15 N5        -17.1100  203.7900  112.6200 N.2     1  UNK01       0.0000
     16 N6         -9.4100  207.4100  112.3800 N.pl3   1  UNK01       0.0000
     17 C11        -9.0100  207.2400  113.7100 C.2     1  UNK01       0.0000
     18 C12        -8.2300  208.2300  114.3200 C.2     1  UNK01       0.0000
     19 C13        -7.8600  208.1600  115.6800 C.2     1  UNK01       0.0000
     20 C14        -8.2600  207.0200  116.4100 C.2     1  UNK01       0.0000
     21 C15        -9.0500  206.0400  115.8200 C.2     1  UNK01       0.0000
     22 C16        -9.4300  206.1600  114.5000 C.2     1  UNK01       0.0000
     23 N7         -7.1000  209.1900  116.3200 N.pl3   1  UNK01       0.0000
     24 O1         -7.0800  209.1600  117.8400 O.2     1  UNK01       0.0000
     25 O2         -7.3700  210.5800  115.8400 O.2     1  UNK01       0.0000
@<TRIPOS>UNITY_ATOM_ATTR
24 1
charge -1
@<TRIPOS>BOND
     1     1     2    1
     2     1     6    2
     3     1     9    1
     4     2     3    2
     5     3     4    1
     6     4     5    2
     7     5     6    1
     8     5    16    1
     9     7     8    2
    10     7    10    1
    11     8     9    1
    12     9    11    2
    13    10    11    1
    14    10    15    1
    15    11    12    1
    16    12    13    2
    17    13    14    1
    18    14    15    2
    19    16    17    1
    20    17    18    1
    21    17    22    2
    22    18    19    2
    23    19    20    1
    24    19    23    1
    25    20    21    2
    26    21    22    1
    27    23    24    1
    28    23    25    2
