@<TRIPOS>MOLECULE
BDB50293153
 25 28 0 0 0
SMALL
USER_CHARGES

@<TRIPOS>ATOM
      1 C1        -12.4400  207.1000  111.4400 C.2     1  UNK01       0.0000
      2 C2        -12.5900  207.4700  110.1000 C.2     1  UNK01       0.0000
      3 C3        -11.5600  208.2400  109.5700 C.2     1  UNK01       0.0000
      4 N1        -10.4600  208.6100  110.2600 N.2     1  UNK01       0.0000
      5 C4        -10.4200  208.2400  111.5800 C.cat   1  UNK01       0.0000
      6 N2        -11.3500  207.4400  112.1500 N.2     1  UNK01       0.0000
      7 N3        -14.5700  204.9400  113.9300 N.2     1  UNK01       0.0000
      8 C5        -13.3200  205.5600  113.5500 C.2     1  UNK01       0.0000
      9 C6        -13.4900  206.3800  112.1600 C.2     1  UNK01       0.0000
     10 N4        -15.5500  205.3700  112.8400 N.pl3   1  UNK01       0.0000
     11 C7        -14.9200  206.2500  111.7900 C.2     1  UNK01       0.0000
     12 C8        -15.8400  206.7900  110.8300 C.2     1  UNK01       0.0000
     13 C9        -17.1400  206.4800  110.9900 C.2     1  UNK01       0.0000
     14 C10       -17.6000  205.5400  112.0400 C.2     1  UNK01       0.0000
     15 N5        -16.8400  204.9800  112.9600 N.2     1  UNK01       0.0000
     16 N6         -9.4100  208.7900  112.3100 N.pl3   1  UNK01       0.0000
     17 C11        -9.4000  209.1600  113.7100 C.2     1  UNK01       0.0000
     18 C12        -8.2100  209.5800  114.2900 C.2     1  UNK01       0.0000
     19 C13        -8.1300  209.8500  115.6900 C.2     1  UNK01       0.0000
     20 C14        -9.2900  209.6800  116.4500 C.2     1  UNK01       0.0000
     21 C15       -10.5000  209.2700  115.9000 C.2     1  UNK01       0.0000
     22 C16       -10.5300  209.0000  114.5200 C.2     1  UNK01       0.0000
     23 N7         -6.9200  210.2600  116.3100 N.pl3   1  UNK01       0.0000
     24 O1         -6.7900  209.8400  117.7700 O.2     1  UNK01       0.0000
     25 O2         -5.6300  210.1400  115.5600 O.2     1  UNK01       0.0000
@<TRIPOS>UNITY_ATOM_ATTR
24 1
charge -1
@<TRIPOS>BOND
     1     1     2    1
     2     1     6    2
     3     1     9    1
     4     2     3    2
     5     3     4    1
     6     4     5    2
     7     5     6    1
     8     5    16    1
     9     7     8    2
    10     7    10    1
    11     8     9    1
    12     9    11    2
    13    10    11    1
    14    10    15    1
    15    11    12    1
    16    12    13    2
    17    13    14    1
    18    14    15    2
    19    16    17    1
    20    17    18    1
    21    17    22    2
    22    18    19    2
    23    19    20    1
    24    19    23    1
    25    20    21    2
    26    21    22    1
    27    23    24    1
    28    23    25    2
