# created with PyMOL 2.5.0
@<TRIPOS>MOLECULE
BDB50293153
36 39 1                 
SMALL
USER_CHARGES
@<TRIPOS>ATOM
1	 H11	-11.800	207.500	116.140	 H	1	UNK0	0.000	
2	 H04	-14.370	207.980	110.490	 H	1	UNK0	0.000	
3	 H05	-16.740	207.930	109.710	 H	1	UNK0	0.000	
4	 H06	-18.480	206.740	110.940	 H	1	UNK0	0.000	
5	 H02	-10.010	207.690	110.440	 H	1	UNK0	0.000	
6	 H01	-12.390	206.870	110.580	 H	1	UNK0	0.000	
7	 H08	-7.570	208.120	116.460	 H	1	UNK0	0.000	
8	 H09	-10.130	208.530	119.910	 H	1	UNK0	0.000	
9	 H03	-13.630	204.790	114.950	 H	1	UNK0	0.000	
10	 H10	-12.070	207.960	118.530	 H	1	UNK0	0.000	
11	 H07	-8.610	208.060	114.380	 H	1	UNK0	0.000	
12	  C1	-12.270	206.700	112.740	C.2	1	UNK0	0.000	
13	  C2	-11.790	207.000	111.470	C.2	1	UNK0	0.000	
14	  C3	-10.470	207.450	111.390	C.2	1	UNK0	0.000	
15	  N1	-9.690	207.600	112.490	N.2	1	UNK0	0.000	
16	  C4	-10.240	207.310	113.690	C.2	1	UNK0	0.000	
17	  N2	-11.500	206.810	113.850	N.2	1	UNK0	0.000	
18	  N3	-15.620	205.150	114.060	N.2	1	UNK0	0.000	
19	  C5	-14.180	205.270	114.150	C.2	1	UNK0	0.000	
20	  C6	-13.620	206.210	112.950	C.2	1	UNK0	0.000	
21	  N4	-16.010	206.020	112.880	N.pl3	1	UNK0	0.000	
22	  C7	-14.820	206.660	112.170	C.2	1	UNK0	0.000	
23	  C8	-15.140	207.460	111.060	C.2	1	UNK0	0.000	
24	  C9	-16.420	207.470	110.630	C.2	1	UNK0	0.000	
25	 C10	-17.490	206.770	111.430	C.2	1	UNK0	0.000	
26	  N5	-17.320	206.170	112.560	N.2	1	UNK0	0.000	
27	  N6	-9.400	207.540	114.760	N.pl3	1	UNK0	0.000	
28	 C11	-9.660	207.820	116.110	C.2	1	UNK0	0.000	
29	 C12	-8.550	208.080	116.920	C.2	1	UNK0	0.000	
30	 C13	-8.680	208.350	118.300	C.2	1	UNK0	0.000	
31	 C14	-9.970	208.330	118.850	C.2	1	UNK0	0.000	
32	 C15	-11.080	208.010	118.070	C.2	1	UNK0	0.000	
33	 C16	-10.920	207.740	116.720	C.2	1	UNK0	0.000	
34	  N7	-7.530	208.650	119.090	N.pl3	1	UNK0	0.000	
35	  O1	-7.730	208.800	120.590	O.2	1	UNK0	0.000	
36	  O2	-6.250	207.940	118.730	O.2	1	UNK0	0.000	
@<TRIPOS>BOND
1 12 13 1
2 12 17 2
3 12 20 1
4 6 13 1
5 13 14 2
6 5 14 1
7 14 15 1
8 15 16 2
9 16 17 1
10 16 27 1
11 18 19 2
12 18 21 1
13 9 19 1
14 19 20 1
15 20 22 2
16 21 22 1
17 21 26 1
18 22 23 1
19 2 23 1
20 23 24 2
21 3 24 1
22 24 25 1
23 4 25 1
24 25 26 2
25 11 27 1
26 27 28 1
27 28 29 1
28 28 33 2
29 7 29 1
30 29 30 2
31 30 31 1
32 30 34 1
33 8 31 1
34 31 32 2
35 10 32 1
36 32 33 1
37 1 33 1
38 34 35 1
39 34 36 2
@<TRIPOS>SUBSTRUCTURE
1	UNK0	1	GROUP	1 ****	UNK
