# created with PyMOL 2.5.0
@<TRIPOS>MOLECULE
BDB50293153
36 39 1                 
SMALL
USER_CHARGES
@<TRIPOS>ATOM
1	 H11	-12.770	211.490	112.110	 H	1	UNK0	0.000	
2	 H04	-16.750	208.620	115.840	 H	1	UNK0	0.000	
3	 H05	-16.600	206.860	117.620	 H	1	UNK0	0.000	
4	 H06	-15.160	204.870	117.280	 H	1	UNK0	0.000	
5	 H02	-16.120	209.150	107.170	 H	1	UNK0	0.000	
6	 H01	-17.690	208.500	109.050	 H	1	UNK0	0.000	
7	 H08	-11.600	207.690	110.540	 H	1	UNK0	0.000	
8	 H09	-10.750	208.710	114.650	 H	1	UNK0	0.000	
9	 H03	-15.190	207.220	111.080	 H	1	UNK0	0.000	
10	 H10	-11.780	210.920	114.290	 H	1	UNK0	0.000	
11	 H07	-12.450	209.440	109.160	 H	1	UNK0	0.000	
12	  C1	-16.260	209.080	110.560	C.2	1	UNK0	0.000	
13	  C2	-16.720	208.940	109.250	C.2	1	UNK0	0.000	
14	  C3	-15.860	209.270	108.220	C.2	1	UNK0	0.000	
15	  N1	-14.570	209.620	108.470	N.2	1	UNK0	0.000	
16	  C4	-14.220	209.830	109.750	C.2	1	UNK0	0.000	
17	  N2	-15.070	209.700	110.790	N.2	1	UNK0	0.000	
18	  N3	-13.980	206.070	113.080	N.2	1	UNK0	0.000	
19	  C5	-14.430	207.200	112.230	C.2	1	UNK0	0.000	
20	  C6	-16.330	207.850	111.340	C.2	1	UNK0	0.000	
21	  N4	-14.690	206.270	114.410	N.pl3	1	UNK0	0.000	
22	  C7	-15.640	207.410	114.260	C.2	1	UNK0	0.000	
23	  C8	-16.230	207.680	115.670	C.2	1	UNK0	0.000	
24	  C9	-16.130	206.750	116.650	C.2	1	UNK0	0.000	
25	 C10	-15.200	205.590	116.450	C.2	1	UNK0	0.000	
26	  N5	-14.430	205.410	115.430	N.2	1	UNK0	0.000	
27	  N6	-12.850	209.930	109.950	N.pl3	1	UNK0	0.000	
28	 C11	-12.190	209.650	111.160	C.2	1	UNK0	0.000	
29	 C12	-11.600	208.400	111.360	C.2	1	UNK0	0.000	
30	 C13	-11.080	208.020	112.610	C.2	1	UNK0	0.000	
31	 C14	-11.140	208.950	113.660	C.2	1	UNK0	0.000	
32	 C15	-11.720	210.210	113.480	C.2	1	UNK0	0.000	
33	 C16	-12.270	210.530	112.240	C.2	1	UNK0	0.000	
34	  N7	-10.570	206.710	112.820	N.pl3	1	UNK0	0.000	
35	  O1	-9.730	206.470	114.050	O.2	1	UNK0	0.000	
36	  O2	-9.970	206.030	111.600	O.2	1	UNK0	0.000	
@<TRIPOS>BOND
1 12 13 1
2 12 17 2
3 12 20 1
4 6 13 1
5 13 14 2
6 5 14 1
7 14 15 1
8 15 16 2
9 16 17 1
10 16 27 1
11 18 19 2
12 18 21 1
13 9 19 1
14 19 20 1
15 20 22 2
16 21 22 1
17 21 26 1
18 22 23 1
19 2 23 1
20 23 24 2
21 3 24 1
22 24 25 1
23 4 25 1
24 25 26 2
25 11 27 1
26 27 28 1
27 28 29 1
28 28 33 2
29 7 29 1
30 29 30 2
31 30 31 1
32 30 34 1
33 8 31 1
34 31 32 2
35 10 32 1
36 32 33 1
37 1 33 1
38 34 35 1
39 34 36 2
@<TRIPOS>SUBSTRUCTURE
1	UNK0	1	GROUP	1 ****	UNK
