# created with PyMOL 2.5.0
@<TRIPOS>MOLECULE
BDB50293153
36 39 1                 
SMALL
USER_CHARGES
@<TRIPOS>ATOM
1	 H11	-11.480	208.700	114.130	 H	1	UNK0	0.000	
2	 H04	-15.510	207.490	110.100	 H	1	UNK0	0.000	
3	 H05	-17.920	206.930	110.350	 H	1	UNK0	0.000	
4	 H06	-18.670	205.320	112.060	 H	1	UNK0	0.000	
5	 H02	-11.610	208.560	108.520	 H	1	UNK0	0.000	
6	 H01	-13.420	207.150	109.500	 H	1	UNK0	0.000	
7	 H08	-7.340	209.700	113.680	 H	1	UNK0	0.000	
8	 H09	-9.280	209.900	117.510	 H	1	UNK0	0.000	
9	 H03	-12.420	205.420	114.170	 H	1	UNK0	0.000	
10	 H10	-11.370	209.150	116.490	 H	1	UNK0	0.000	
11	 H07	-8.860	209.410	111.720	 H	1	UNK0	0.000	
12	  C1	-12.440	207.100	111.440	C.2	1	UNK0	0.000	
13	  C2	-12.590	207.470	110.100	C.2	1	UNK0	0.000	
14	  C3	-11.560	208.240	109.570	C.2	1	UNK0	0.000	
15	  N1	-10.460	208.610	110.260	N.2	1	UNK0	0.000	
16	  C4	-10.420	208.240	111.580	C.2	1	UNK0	0.000	
17	  N2	-11.350	207.440	112.150	N.2	1	UNK0	0.000	
18	  N3	-14.570	204.940	113.930	N.2	1	UNK0	0.000	
19	  C5	-13.320	205.560	113.550	C.2	1	UNK0	0.000	
20	  C6	-13.490	206.380	112.160	C.2	1	UNK0	0.000	
21	  N4	-15.550	205.370	112.840	N.pl3	1	UNK0	0.000	
22	  C7	-14.920	206.250	111.790	C.2	1	UNK0	0.000	
23	  C8	-15.840	206.790	110.830	C.2	1	UNK0	0.000	
24	  C9	-17.140	206.480	110.990	C.2	1	UNK0	0.000	
25	 C10	-17.600	205.540	112.040	C.2	1	UNK0	0.000	
26	  N5	-16.840	204.980	112.960	N.2	1	UNK0	0.000	
27	  N6	-9.410	208.790	112.310	N.pl3	1	UNK0	0.000	
28	 C11	-9.400	209.160	113.710	C.2	1	UNK0	0.000	
29	 C12	-8.210	209.580	114.290	C.2	1	UNK0	0.000	
30	 C13	-8.130	209.850	115.690	C.2	1	UNK0	0.000	
31	 C14	-9.290	209.680	116.450	C.2	1	UNK0	0.000	
32	 C15	-10.500	209.270	115.900	C.2	1	UNK0	0.000	
33	 C16	-10.530	209.000	114.520	C.2	1	UNK0	0.000	
34	  N7	-6.920	210.260	116.310	N.pl3	1	UNK0	0.000	
35	  O1	-6.790	209.840	117.770	O.2	1	UNK0	0.000	
36	  O2	-5.630	210.140	115.560	O.2	1	UNK0	0.000	
@<TRIPOS>BOND
1 12 13 1
2 12 17 2
3 12 20 1
4 6 13 1
5 13 14 2
6 5 14 1
7 14 15 1
8 15 16 2
9 16 17 1
10 16 27 1
11 18 19 2
12 18 21 1
13 9 19 1
14 19 20 1
15 20 22 2
16 21 22 1
17 21 26 1
18 22 23 1
19 2 23 1
20 23 24 2
21 3 24 1
22 24 25 1
23 4 25 1
24 25 26 2
25 11 27 1
26 27 28 1
27 28 29 1
28 28 33 2
29 7 29 1
30 29 30 2
31 30 31 1
32 30 34 1
33 8 31 1
34 31 32 2
35 10 32 1
36 32 33 1
37 1 33 1
38 34 35 1
39 34 36 2
@<TRIPOS>SUBSTRUCTURE
1	UNK0	1	GROUP	1 ****	UNK
