step2_200_2000_5.0_41842.xyz.gro
  PyMOL2.5          3D                             0

 25 28  0  0  0  0  0  0  0  0999 V2000
  -12.2575  206.8145  111.1172 C   0  0  0  0  0  0  0  0  0  0  0  0
  -12.4775  207.5946  109.9872 C   0  0  0  0  0  0  0  0  0  0  0  0
  -11.3674  208.2544  109.4771 C   0  0  0  0  0  0  0  0  0  0  0  0
  -10.1373  208.1841  110.0670 N   0  0  0  0  0  0  0  0  0  0  0  0
  -10.0374  207.4340  111.1869 C   0  0  0  0  0  0  0  0  0  0  0  0
  -11.0375  206.6742  111.6670 N   0  0  0  0  0  0  0  0  0  0  0  0
  -14.3978  204.1649  112.9773 N   0  0  0  0  0  0  0  0  0  0  0  0
  -13.1178  204.7246  112.6472 C   0  0  0  0  0  0  0  0  0  0  0  0
  -13.3076  206.0847  111.7873 C   0  0  0  0  0  0  0  0  0  0  0  0
  -15.4177  205.1251  112.3875 N   0  0  0  0  0  0  0  0  0  0  0  0
  -14.7875  206.3050  111.6774 C   0  0  0  0  0  0  0  0  0  0  0  0
  -15.6974  207.2652  111.1776 C   0  0  0  0  0  0  0  0  0  0  0  0
  -17.0174  207.0355  111.3278 C   0  0  0  0  0  0  0  0  0  0  0  0
  -17.4876  205.7956  112.0377 C   0  0  0  0  0  0  0  0  0  0  0  0
  -16.7378  204.8254  112.4776 N   0  0  0  0  0  0  0  0  0  0  0  0
   -8.5771  207.3536  113.2668 C   0  0  0  0  0  0  0  0  0  0  0  0
   -7.2571  207.4333  113.6966 C   0  0  0  0  0  0  0  0  0  0  0  0
   -6.8969  207.3531  115.0466 C   0  0  0  0  0  0  0  0  0  0  0  0
   -7.9069  207.1033  115.9867 C   0  0  0  0  0  0  0  0  0  0  0  0
   -9.2369  206.9536  115.5868 C   0  0  0  0  0  0  0  0  0  0  0  0
   -9.5571  207.0737  114.2369 C   0  0  0  0  0  0  0  0  0  0  0  0
   -8.8373  207.5137  111.8768 N   0  0  0  0  0  0  0  0  0  0  0  0
   -5.5568  207.5828  115.4664 N   0  0  0  0  0  0  0  0  0  0  0  0
   -5.1767  207.5126  116.9364 O   0  0  0  0  0  0  0  0  0  0  0  0
   -4.4170  207.4026  114.4963 O   0  0  0  0  0  0  0  0  0  0  0  0
  1  2  1  0  0  0  0
  1  6  1  0  0  0  0
  1  9  1  0  0  0  0
  2  3  1  0  0  0  0
  3  4  1  0  0  0  0
  4  5  1  0  0  0  0
  5  6  1  0  0  0  0
  5 22  1  0  0  0  0
  7  8  1  0  0  0  0
  7 10  1  0  0  0  0
  8  9  1  0  0  0  0
  9 11  1  0  0  0  0
 10 11  1  0  0  0  0
 10 15  1  0  0  0  0
 11 12  1  0  0  0  0
 12 13  1  0  0  0  0
 13 14  1  0  0  0  0
 14 15  1  0  0  0  0
 16 17  1  0  0  0  0
 16 21  1  0  0  0  0
 16 22  1  0  0  0  0
 17 18  1  0  0  0  0
 18 19  1  0  0  0  0
 18 23  1  0  0  0  0
 19 20  1  0  0  0  0
 20 21  1  0  0  0  0
 23 24  1  0  0  0  0
 23 25  1  0  0  0  0
M  END
$$$$
