step1_200.xyz.gro
  PyMOL2.5          3D                             0

 25 28  0  0  0  0  0  0  0  0999 V2000
  -13.3301  206.0898  111.1097 C   0  0  0  0  0  0  0  0  0  0  0  0
  -13.5401  206.7298  109.8897 C   0  0  0  0  0  0  0  0  0  0  0  0
  -12.4401  207.3498  109.3197 C   0  0  0  0  0  0  0  0  0  0  0  0
  -11.2001  207.3298  109.8997 N   0  0  0  0  0  0  0  0  0  0  0  0
  -11.1101  206.7198  111.0997 C   0  0  0  0  0  0  0  0  0  0  0  0
  -12.1201  206.0398  111.6997 N   0  0  0  0  0  0  0  0  0  0  0  0
  -15.7501  203.7098  113.0297 N   0  0  0  0  0  0  0  0  0  0  0  0
  -14.4101  204.0598  112.6097 C   0  0  0  0  0  0  0  0  0  0  0  0
  -14.4101  205.4598  111.8197 C   0  0  0  0  0  0  0  0  0  0  0  0
  -16.5901  204.8998  112.6197 N   0  0  0  0  0  0  0  0  0  0  0  0
  -15.8301  205.9398  111.8397 C   0  0  0  0  0  0  0  0  0  0  0  0
  -16.5701  207.0898  111.4997 C   0  0  0  0  0  0  0  0  0  0  0  0
  -17.9001  207.0698  111.6797 C   0  0  0  0  0  0  0  0  0  0  0  0
  -18.5401  205.9298  112.4097 C   0  0  0  0  0  0  0  0  0  0  0  0
  -17.9001  204.9398  112.9597 N   0  0  0  0  0  0  0  0  0  0  0  0
   -9.6601  207.4198  112.9897 C   0  0  0  0  0  0  0  0  0  0  0  0
   -8.4101  207.9798  113.2697 C   0  0  0  0  0  0  0  0  0  0  0  0
   -8.1301  208.6197  114.4997 C   0  0  0  0  0  0  0  0  0  0  0  0
   -9.1501  208.6297  115.4697 C   0  0  0  0  0  0  0  0  0  0  0  0
  -10.3801  208.0397  115.2397 C   0  0  0  0  0  0  0  0  0  0  0  0
  -10.6301  207.4397  114.0097 C   0  0  0  0  0  0  0  0  0  0  0  0
   -9.8801  206.7998  111.7397 N   0  0  0  0  0  0  0  0  0  0  0  0
   -6.8701  209.1797  114.7997 N   0  0  0  0  0  0  0  0  0  0  0  0
   -6.8001  210.4597  115.5797 O   0  0  0  0  0  0  0  0  0  0  0  0
   -5.7201  208.9897  113.8797 O   0  0  0  0  0  0  0  0  0  0  0  0
  1  2  1  0  0  0  0
  1  6  1  0  0  0  0
  1  9  1  0  0  0  0
  2  3  1  0  0  0  0
  3  4  1  0  0  0  0
  4  5  1  0  0  0  0
  5  6  1  0  0  0  0
  5 22  1  0  0  0  0
  7  8  1  0  0  0  0
  7 10  1  0  0  0  0
  8  9  1  0  0  0  0
  9 11  1  0  0  0  0
 10 11  1  0  0  0  0
 10 15  1  0  0  0  0
 11 12  1  0  0  0  0
 12 13  1  0  0  0  0
 13 14  1  0  0  0  0
 14 15  1  0  0  0  0
 16 17  1  0  0  0  0
 16 21  1  0  0  0  0
 16 22  1  0  0  0  0
 17 18  1  0  0  0  0
 18 19  1  0  0  0  0
 18 23  1  0  0  0  0
 19 20  1  0  0  0  0
 20 21  1  0  0  0  0
 23 24  1  0  0  0  0
 23 25  1  0  0  0  0
M  END
$$$$
