@<TRIPOS>MOLECULE
BDB50293153
 25 28 0 0 0
SMALL
USER_CHARGES

@<TRIPOS>ATOM
      1 C1         -8.5600  214.6100  117.0900 C.2     1  UNK01       0.0000
      2 C2        -10.0000  214.8500  117.2400 C.2     1  UNK01       0.0000
      3 C3        -12.3700  225.2400  116.2500 C.2     1  UNK01       0.0000
      4 N1        -11.0900  213.9600  114.9800 N.2     1  UNK01       0.0000
      5 C4         -6.8100  208.2600  114.7900 C.cat   1  UNK01       0.0000
      6 N2        -11.1400  213.9500  115.4600 N.2     1  UNK01       0.0000
      7 N3         -6.2300  199.9300  112.3700 N.2     1  UNK01       0.0000
      8 C5         -4.4400  199.8700  113.1400 C.2     1  UNK01       0.0000
      9 C6        -10.2100  194.5600  107.3400 C.2     1  UNK01       0.0000
     10 N4         -1.1100  200.5900  112.8700 N.pl3   1  UNK01       0.0000
     11 C7         -6.1900  198.6400  111.1900 C.2     1  UNK01       0.0000
     12 C8         -5.5300  199.8000  108.7700 C.2     1  UNK01       0.0000
     13 C9         -6.3200  200.3100  110.1300 C.2     1  UNK01       0.0000
     14 C10        -5.1900  200.4100  110.5200 C.2     1  UNK01       0.0000
     15 N5        -11.9500  201.9100  105.0500 N.2     1  UNK01       0.0000
     16 N6        -21.5400  218.9700  118.1400 N.pl3   1  UNK01       0.0000
     17 C11       -12.7800  207.3500  125.6200 C.2     1  UNK01       0.0000
     18 C12       -12.8400  207.6300  125.5700 C.2     1  UNK01       0.0000
     19 C13       -10.3500  206.1000  128.6700 C.2     1  UNK01       0.0000
     20 C14       -12.1300  211.9800  124.8600 C.2     1  UNK01       0.0000
     21 C15        -7.3000  206.0300  123.7000 C.2     1  UNK01       0.0000
     22 C16       -11.7700  205.9000  130.7500 C.2     1  UNK01       0.0000
     23 N7         -2.0500  203.5000  118.9700 N.pl3   1  UNK01       0.0000
     24 O1         -8.5300  208.5300  123.2000 O.2     1  UNK01       0.0000
     25 O2         -1.3200  218.9500  121.3400 O.2     1  UNK01       0.0000
@<TRIPOS>UNITY_ATOM_ATTR
24 1
charge -1
@<TRIPOS>BOND
     1     1     2    1
     2     1     6    2
     3     1     9    1
     4     2     3    2
     5     3     4    1
     6     4     5    2
     7     5     6    1
     8     5    16    1
     9     7     8    2
    10     7    10    1
    11     8     9    1
    12     9    11    2
    13    10    11    1
    14    10    15    1
    15    11    12    1
    16    12    13    2
    17    13    14    1
    18    14    15    2
    19    16    17    1
    20    17    18    1
    21    17    22    2
    22    18    19    2
    23    19    20    1
    24    19    23    1
    25    20    21    2
    26    21    22    1
    27    23    24    1
    28    23    25    2
