step2_200_2000_5.0_13001.xyz.gro
  PyMOL2.5          3D                             0

 25  5  0  0  0  0  0  0  0  0999 V2000
  -13.4063  201.0479  106.6342 C   0  0  0  0  0  0  0  0  0  0  0  0
   -9.6839  213.5003  102.0737 C   0  0  0  0  0  0  0  0  0  0  0  0
  -12.1047  210.8088  104.6940 C   0  0  0  0  0  0  0  0  0  0  0  0
  -19.0141  211.2361  111.6205 N   0  0  0  0  0  0  0  0  0  0  0  0
  -12.8551  210.3442  108.9345 C   0  0  0  0  0  0  0  0  0  0  0  0
  -10.7594  206.4542  104.7138 N   0  0  0  0  0  0  0  0  0  0  0  0
  -13.8393  203.5089  118.1736 N   0  0  0  0  0  0  0  0  0  0  0  0
  -19.7587  202.4617  117.2155 C   0  0  0  0  0  0  0  0  0  0  0  0
  -14.9760  203.1801  112.6709 C   0  0  0  0  0  0  0  0  0  0  0  0
  -19.5184  204.0525  116.1242 N   0  0  0  0  0  0  0  0  0  0  0  0
  -19.3351  200.0371  116.8262 C   0  0  0  0  0  0  0  0  0  0  0  0
  -19.3714  200.8153  116.5700 C   0  0  0  0  0  0  0  0  0  0  0  0
  -14.6286  195.4222  120.8730 C   0  0  0  0  0  0  0  0  0  0  0  0
  -14.0804  200.6298  111.7446 C   0  0  0  0  0  0  0  0  0  0  0  0
  -18.9273  202.9117  115.0056 N   0  0  0  0  0  0  0  0  0  0  0  0
  -16.3483  206.0634  117.6327 C   0  0  0  0  0  0  0  0  0  0  0  0
  -11.0522  200.1774  114.0516 C   0  0  0  0  0  0  0  0  0  0  0  0
  -13.2911  207.3556  119.2562 C   0  0  0  0  0  0  0  0  0  0  0  0
  -11.9611  207.2430  116.9229 C   0  0  0  0  0  0  0  0  0  0  0  0
  -14.5543  206.8148  117.3147 C   0  0  0  0  0  0  0  0  0  0  0  0
  -11.1496  210.8062  121.5590 C   0  0  0  0  0  0  0  0  0  0  0  0
  -13.7457  211.5578  116.7415 N   0  0  0  0  0  0  0  0  0  0  0  0
  -10.8593  215.1131  113.5165 N   0  0  0  0  0  0  0  0  0  0  0  0
  -18.3242  212.9015  106.1604 O   0  0  0  0  0  0  0  0  0  0  0  0
  -11.7459  219.5164  107.0881 O   0  0  0  0  0  0  0  0  0  0  0  0
  8 10  1  0  0  0  0
  8 12  1  0  0  0  0
 10 15  1  0  0  0  0
 11 12  1  0  0  0  0
 16 20  1  0  0  0  0
M  END
$$$$
