@<TRIPOS>MOLECULE
BDB50293153
 25 28 0 0 0
SMALL
USER_CHARGES

@<TRIPOS>ATOM
      1 C1        -11.9000  205.5900  111.3900 C.2     1  UNK01       0.0000
      2 C2        -12.4100  206.5200  110.4800 C.2     1  UNK01       0.0000
      3 C3        -11.6200  207.6300  110.2300 C.2     1  UNK01       0.0000
      4 N1        -10.4200  207.8300  110.8500 N.2     1  UNK01       0.0000
      5 C4        -10.0600  206.9300  111.7900 C.cat   1  UNK01       0.0000
      6 N2        -10.7200  205.7700  112.0300 N.2     1  UNK01       0.0000
      7 N3        -13.3400  202.1900  112.6400 N.2     1  UNK01       0.0000
      8 C5        -12.3900  202.8900  111.8000 C.2     1  UNK01       0.0000
      9 C6        -12.7300  204.4800  111.7700 C.2     1  UNK01       0.0000
     10 N4        -14.2500  203.2900  113.1900 N.pl3   1  UNK01       0.0000
     11 C7        -13.9100  204.6600  112.6700 C.2     1  UNK01       0.0000
     12 C8        -14.6800  205.7300  113.1800 C.2     1  UNK01       0.0000
     13 C9        -15.6000  205.4400  114.1300 C.2     1  UNK01       0.0000
     14 C10       -15.7400  204.0300  114.6300 C.2     1  UNK01       0.0000
     15 N5        -15.1800  202.9600  114.1200 N.2     1  UNK01       0.0000
     16 N6         -9.0100  207.3600  112.5800 N.pl3   1  UNK01       0.0000
     17 C11        -8.9200  207.3100  113.9900 C.2     1  UNK01       0.0000
     18 C12        -8.1600  208.2800  114.6600 C.2     1  UNK01       0.0000
     19 C13        -8.0100  208.2900  116.0700 C.2     1  UNK01       0.0000
     20 C14        -8.6600  207.2700  116.7900 C.2     1  UNK01       0.0000
     21 C15        -9.3700  206.2600  116.1500 C.2     1  UNK01       0.0000
     22 C16        -9.4800  206.2800  114.7600 C.2     1  UNK01       0.0000
     23 N7         -7.2400  209.2700  116.7400 N.pl3   1  UNK01       0.0000
     24 O1         -6.1100  209.8700  115.9400 O.2     1  UNK01       0.0000
     25 O2         -6.7900  208.9400  118.1600 O.2     1  UNK01       0.0000
@<TRIPOS>UNITY_ATOM_ATTR
24 1
charge -1
@<TRIPOS>BOND
     1     1     2    1
     2     1     6    2
     3     1     9    1
     4     2     3    2
     5     3     4    1
     6     4     5    2
     7     5     6    1
     8     5    16    1
     9     7     8    2
    10     7    10    1
    11     8     9    1
    12     9    11    2
    13    10    11    1
    14    10    15    1
    15    11    12    1
    16    12    13    2
    17    13    14    1
    18    14    15    2
    19    16    17    1
    20    17    18    1
    21    17    22    2
    22    18    19    2
    23    19    20    1
    24    19    23    1
    25    20    21    2
    26    21    22    1
    27    23    24    1
    28    23    25    2
