# created with PyMOL 2.5.0
@<TRIPOS>MOLECULE
BDB50293153
36 39 1                 
SMALL
USER_CHARGES
@<TRIPOS>ATOM
1	 H11	-10.880	206.990	116.020	 H	1	UNK0	0.000	
2	 H04	-13.730	207.340	110.710	 H	1	UNK0	0.000	
3	 H05	-16.210	207.530	110.730	 H	1	UNK0	0.000	
4	 H06	-17.610	205.870	111.850	 H	1	UNK0	0.000	
5	 H02	-9.650	208.250	110.580	 H	1	UNK0	0.000	
6	 H01	-11.520	206.610	110.150	 H	1	UNK0	0.000	
7	 H08	-6.660	207.530	115.570	 H	1	UNK0	0.000	
8	 H09	-8.700	209.100	119.030	 H	1	UNK0	0.000	
9	 H03	-11.960	202.750	113.150	 H	1	UNK0	0.000	
10	 H10	-10.830	208.200	118.170	 H	1	UNK0	0.000	
11	 H07	-9.230	205.540	114.750	 H	1	UNK0	0.000	
12	  C1	-11.270	205.740	112.130	C.2	1	UNK0	0.000	
13	  C2	-10.970	206.620	111.090	C.2	1	UNK0	0.000	
14	  C3	-9.930	207.510	111.330	C.2	1	UNK0	0.000	
15	  N1	-9.250	207.540	112.500	N.2	1	UNK0	0.000	
16	  C4	-9.590	206.620	113.420	C.2	1	UNK0	0.000	
17	  N2	-10.540	205.690	113.270	N.2	1	UNK0	0.000	
18	  N3	-14.100	203.170	112.820	N.2	1	UNK0	0.000	
19	  C5	-12.680	203.440	112.720	C.2	1	UNK0	0.000	
20	  C6	-12.420	204.870	112.000	C.2	1	UNK0	0.000	
21	  N4	-14.770	204.400	112.250	N.pl3	1	UNK0	0.000	
22	  C7	-13.790	205.410	111.690	C.2	1	UNK0	0.000	
23	  C8	-14.360	206.540	111.080	C.2	1	UNK0	0.000	
24	  C9	-15.700	206.650	111.080	C.2	1	UNK0	0.000	
25	 C10	-16.540	205.620	111.790	C.2	1	UNK0	0.000	
26	  N5	-16.130	204.480	112.240	N.2	1	UNK0	0.000	
27	  N6	-8.750	206.400	114.490	N.pl3	1	UNK0	0.000	
28	 C11	-8.760	207.180	115.660	C.2	1	UNK0	0.000	
29	 C12	-7.560	207.710	116.140	C.2	1	UNK0	0.000	
30	 C13	-7.500	208.420	117.360	C.2	1	UNK0	0.000	
31	 C14	-8.700	208.550	118.100	C.2	1	UNK0	0.000	
32	 C15	-9.910	208.050	117.610	C.2	1	UNK0	0.000	
33	 C16	-9.940	207.380	116.390	C.2	1	UNK0	0.000	
34	  N7	-6.290	209.020	117.820	N.pl3	1	UNK0	0.000	
35	  O1	-5.990	208.990	119.310	O.2	1	UNK0	0.000	
36	  O2	-5.000	208.570	117.180	O.2	1	UNK0	0.000	
@<TRIPOS>BOND
1 12 13 1
2 12 17 2
3 12 20 1
4 6 13 1
5 13 14 2
6 5 14 1
7 14 15 1
8 15 16 2
9 16 17 1
10 16 27 1
11 18 19 2
12 18 21 1
13 9 19 1
14 19 20 1
15 20 22 2
16 21 22 1
17 21 26 1
18 22 23 1
19 2 23 1
20 23 24 2
21 3 24 1
22 24 25 1
23 4 25 1
24 25 26 2
25 11 27 1
26 27 28 1
27 28 29 1
28 28 33 2
29 7 29 1
30 29 30 2
31 30 31 1
32 30 34 1
33 8 31 1
34 31 32 2
35 10 32 1
36 32 33 1
37 1 33 1
38 34 35 1
39 34 36 2
@<TRIPOS>SUBSTRUCTURE
1	UNK0	1	GROUP	1 ****	UNK
