step2_200_2000_5.0_86398.xyz.gro
  PyMOL2.5          3D                             0

 25 28  0  0  0  0  0  0  0  0999 V2000
  -11.1068  207.4699  114.2700 C   0  0  0  0  0  0  0  0  0  0  0  0
  -10.6274  207.7801  112.9898 C   0  0  0  0  0  0  0  0  0  0  0  0
   -9.3772  208.3896  112.9092 C   0  0  0  0  0  0  0  0  0  0  0  0
   -8.6265  208.6390  113.9988 N   0  0  0  0  0  0  0  0  0  0  0  0
   -9.1558  208.3088  115.1990 C   0  0  0  0  0  0  0  0  0  0  0  0
  -10.3660  207.7293  115.3796 N   0  0  0  0  0  0  0  0  0  0  0  0
  -13.8481  204.7312  113.9209 N   0  0  0  0  0  0  0  0  0  0  0  0
  -12.8881  205.6110  113.2906 C   0  0  0  0  0  0  0  0  0  0  0  0
  -12.3370  206.7004  114.3605 C   0  0  0  0  0  0  0  0  0  0  0  0
  -13.9770  205.2408  115.3511 N   0  0  0  0  0  0  0  0  0  0  0  0
  -13.0863  206.4303  115.6309 C   0  0  0  0  0  0  0  0  0  0  0  0
  -13.2253  207.0000  116.9212 C   0  0  0  0  0  0  0  0  0  0  0  0
  -14.1250  206.4501  117.7616 C   0  0  0  0  0  0  0  0  0  0  0  0
  -14.9358  205.2505  117.3317 C   0  0  0  0  0  0  0  0  0  0  0  0
  -14.8667  204.6509  116.1815 N   0  0  0  0  0  0  0  0  0  0  0  0
   -8.4441  208.7678  117.6087 C   0  0  0  0  0  0  0  0  0  0  0  0
   -7.3735  209.3071  118.3082 C   0  0  0  0  0  0  0  0  0  0  0  0
   -7.4325  209.5367  119.6983 C   0  0  0  0  0  0  0  0  0  0  0  0
   -8.6022  209.1570  120.3790 C   0  0  0  0  0  0  0  0  0  0  0  0
   -9.6529  208.5476  119.6994 C   0  0  0  0  0  0  0  0  0  0  0  0
   -9.5639  208.3380  118.3193 C   0  0  0  0  0  0  0  0  0  0  0  0
   -8.2751  208.5881  116.2186 N   0  0  0  0  0  0  0  0  0  0  0  0
   -6.3418  210.1661  120.3478 N   0  0  0  0  0  0  0  0  0  0  0  0
   -6.3508  210.4356  121.8479 O   0  0  0  0  0  0  0  0  0  0  0  0
   -4.9623  209.9857  119.7869 O   0  0  0  0  0  0  0  0  0  0  0  0
  1  2  1  0  0  0  0
  1  6  1  0  0  0  0
  1  9  1  0  0  0  0
  2  3  1  0  0  0  0
  3  4  1  0  0  0  0
  4  5  1  0  0  0  0
  5  6  1  0  0  0  0
  5 22  1  0  0  0  0
  7  8  1  0  0  0  0
  7 10  1  0  0  0  0
  8  9  1  0  0  0  0
  9 11  1  0  0  0  0
 10 11  1  0  0  0  0
 10 15  1  0  0  0  0
 11 12  1  0  0  0  0
 12 13  1  0  0  0  0
 13 14  1  0  0  0  0
 14 15  1  0  0  0  0
 16 17  1  0  0  0  0
 16 21  1  0  0  0  0
 16 22  1  0  0  0  0
 17 18  1  0  0  0  0
 18 19  1  0  0  0  0
 18 23  1  0  0  0  0
 19 20  1  0  0  0  0
 20 21  1  0  0  0  0
 23 24  1  0  0  0  0
 23 25  1  0  0  0  0
M  END
$$$$
