@<TRIPOS>MOLECULE
BDB50293153
 25 28 0 0 0
SMALL
USER_CHARGES

@<TRIPOS>ATOM
      1 C1        -12.8400  207.0100  111.3600 C.2     1  UNK01       0.0000
      2 C2        -13.2600  207.3200  110.0600 C.2     1  UNK01       0.0000
      3 C3        -12.2900  207.7800  109.1700 C.2     1  UNK01       0.0000
      4 N1        -10.9900  207.9000  109.5300 N.2     1  UNK01       0.0000
      5 C4        -10.6600  207.5900  110.8000 C.cat   1  UNK01       0.0000
      6 N2        -11.5300  207.1000  111.7300 N.2     1  UNK01       0.0000
      7 N3        -14.6800  204.9900  114.1500 N.2     1  UNK01       0.0000
      8 C5        -13.4600  205.5800  113.6300 C.2     1  UNK01       0.0000
      9 C6        -13.8000  206.5200  112.3500 C.2     1  UNK01       0.0000
     10 N4        -15.8000  205.5400  113.2800 N.pl3   1  UNK01       0.0000
     11 C7        -15.2900  206.4800  112.2000 C.2     1  UNK01       0.0000
     12 C8        -16.3200  207.0900  111.4300 C.2     1  UNK01       0.0000
     13 C9        -17.5700  206.6400  111.5700 C.2     1  UNK01       0.0000
     14 C10       -17.9200  205.7000  112.6800 C.2     1  UNK01       0.0000
     15 N5        -17.0600  205.1700  113.5300 N.2     1  UNK01       0.0000
     16 N6         -9.3100  207.7200  111.0500 N.pl3   1  UNK01       0.0000
     17 C11        -8.5100  207.6700  112.1800 C.2     1  UNK01       0.0000
     18 C12        -7.1400  207.7600  111.9600 C.2     1  UNK01       0.0000
     19 C13        -6.1900  207.6200  112.9800 C.2     1  UNK01       0.0000
     20 C14        -6.6800  207.4200  114.2900 C.2     1  UNK01       0.0000
     21 C15        -8.0500  207.3200  114.5400 C.2     1  UNK01       0.0000
     22 C16        -8.9600  207.4200  113.4800 C.2     1  UNK01       0.0000
     23 N7         -4.8000  207.6800  112.7000 N.pl3   1  UNK01       0.0000
     24 O1         -3.8800  207.1000  113.7300 O.2     1  UNK01       0.0000
     25 O2         -4.4100  207.1300  111.3300 O.2     1  UNK01       0.0000
@<TRIPOS>UNITY_ATOM_ATTR
24 1
charge -1
@<TRIPOS>BOND
     1     1     2    1
     2     1     6    2
     3     1     9    1
     4     2     3    2
     5     3     4    1
     6     4     5    2
     7     5     6    1
     8     5    16    1
     9     7     8    2
    10     7    10    1
    11     8     9    1
    12     9    11    2
    13    10    11    1
    14    10    15    1
    15    11    12    1
    16    12    13    2
    17    13    14    1
    18    14    15    2
    19    16    17    1
    20    17    18    1
    21    17    22    2
    22    18    19    2
    23    19    20    1
    24    19    23    1
    25    20    21    2
    26    21    22    1
    27    23    24    1
    28    23    25    2
