# created with PyMOL 2.5.0
@<TRIPOS>MOLECULE
BDB50293153
36 39 1                 
SMALL
USER_CHARGES
@<TRIPOS>ATOM
1	 H11	-11.100	203.950	115.620	 H	1	UNK0	0.000	
2	 H04	-14.310	206.880	110.930	 H	1	UNK0	0.000	
3	 H05	-16.790	207.320	110.940	 H	1	UNK0	0.000	
4	 H06	-18.340	205.880	112.190	 H	1	UNK0	0.000	
5	 H02	-9.810	206.540	110.220	 H	1	UNK0	0.000	
6	 H01	-12.210	205.770	110.270	 H	1	UNK0	0.000	
7	 H08	-7.660	206.420	116.180	 H	1	UNK0	0.000	
8	 H09	-10.220	205.480	119.510	 H	1	UNK0	0.000	
9	 H03	-13.020	202.330	113.700	 H	1	UNK0	0.000	
10	 H10	-11.630	204.120	118.020	 H	1	UNK0	0.000	
11	 H07	-8.280	205.900	114.110	 H	1	UNK0	0.000	
12	  C1	-11.980	204.970	112.280	C.2	1	UNK0	0.000	
13	  C2	-11.560	205.620	111.120	C.2	1	UNK0	0.000	
14	  C3	-10.230	206.040	111.100	C.2	1	UNK0	0.000	
15	  N1	-9.390	205.850	112.150	N.2	1	UNK0	0.000	
16	  C4	-9.900	205.270	113.260	C.2	1	UNK0	0.000	
17	  N2	-11.160	204.790	113.340	N.2	1	UNK0	0.000	
18	  N3	-15.080	203.100	113.610	N.2	1	UNK0	0.000	
19	  C5	-13.660	203.090	113.300	C.2	1	UNK0	0.000	
20	  C6	-13.280	204.380	112.380	C.2	1	UNK0	0.000	
21	  N4	-15.620	204.350	112.920	N.pl3	1	UNK0	0.000	
22	  C7	-14.550	205.130	112.170	C.2	1	UNK0	0.000	
23	  C8	-15.010	206.280	111.500	C.2	1	UNK0	0.000	
24	  C9	-16.340	206.520	111.510	C.2	1	UNK0	0.000	
25	 C10	-17.270	205.640	112.300	C.2	1	UNK0	0.000	
26	  N5	-16.920	204.630	113.050	N.2	1	UNK0	0.000	
27	  N6	-9.030	205.240	114.350	N.pl3	1	UNK0	0.000	
28	 C11	-9.360	205.220	115.720	C.2	1	UNK0	0.000	
29	 C12	-8.520	205.910	116.600	C.2	1	UNK0	0.000	
30	 C13	-8.810	206.050	117.960	C.2	1	UNK0	0.000	
31	 C14	-9.960	205.400	118.460	C.2	1	UNK0	0.000	
32	 C15	-10.760	204.630	117.620	C.2	1	UNK0	0.000	
33	 C16	-10.450	204.540	116.270	C.2	1	UNK0	0.000	
34	  N7	-8.000	206.840	118.810	N.pl3	1	UNK0	0.000	
35	  O1	-8.550	207.380	120.110	O.2	1	UNK0	0.000	
36	  O2	-6.770	207.560	118.290	O.2	1	UNK0	0.000	
@<TRIPOS>BOND
1 12 13 1
2 12 17 2
3 12 20 1
4 6 13 1
5 13 14 2
6 5 14 1
7 14 15 1
8 15 16 2
9 16 17 1
10 16 27 1
11 18 19 2
12 18 21 1
13 9 19 1
14 19 20 1
15 20 22 2
16 21 22 1
17 21 26 1
18 22 23 1
19 2 23 1
20 23 24 2
21 3 24 1
22 24 25 1
23 4 25 1
24 25 26 2
25 11 27 1
26 27 28 1
27 28 29 1
28 28 33 2
29 7 29 1
30 29 30 2
31 30 31 1
32 30 34 1
33 8 31 1
34 31 32 2
35 10 32 1
36 32 33 1
37 1 33 1
38 34 35 1
39 34 36 2
@<TRIPOS>SUBSTRUCTURE
1	UNK0	1	GROUP	1 ****	UNK
