step2_200_2000_5.0_15568.xyz.gro
  PyMOL2.5          3D                             0

 25 28  0  0  0  0  0  0  0  0999 V2000
  -13.4604  206.0299  111.8270 C   0  0  0  0  0  0  0  0  0  0  0  0
  -13.7407  206.7000  110.6271 C   0  0  0  0  0  0  0  0  0  0  0  0
  -12.6708  207.3201  109.9970 C   0  0  0  0  0  0  0  0  0  0  0  0
  -11.4007  207.2403  110.4669 N   0  0  0  0  0  0  0  0  0  0  0  0
  -11.2205  206.5702  111.6168 C   0  0  0  0  0  0  0  0  0  0  0  0
  -12.1904  205.9200  112.3069 N   0  0  0  0  0  0  0  0  0  0  0  0
  -15.7999  203.3795  113.4471 N   0  0  0  0  0  0  0  0  0  0  0  0
  -14.4700  203.9197  113.2670 C   0  0  0  0  0  0  0  0  0  0  0  0
  -14.5403  205.3697  112.5371 C   0  0  0  0  0  0  0  0  0  0  0  0
  -16.7401  204.4594  112.9172 N   0  0  0  0  0  0  0  0  0  0  0  0
  -16.0003  205.6695  112.3672 C   0  0  0  0  0  0  0  0  0  0  0  0
  -16.8305  206.7295  111.9274 C   0  0  0  0  0  0  0  0  0  0  0  0
  -18.1705  206.5493  111.9575 C   0  0  0  0  0  0  0  0  0  0  0  0
  -18.7403  205.2992  112.5675 C   0  0  0  0  0  0  0  0  0  0  0  0
  -18.0701  204.2492  112.9574 N   0  0  0  0  0  0  0  0  0  0  0  0
   -9.2304  206.5704  113.1766 C   0  0  0  0  0  0  0  0  0  0  0  0
   -7.8504  206.7206  113.1665 C   0  0  0  0  0  0  0  0  0  0  0  0
   -7.0803  206.7106  114.3464 C   0  0  0  0  0  0  0  0  0  0  0  0
   -7.7701  206.5304  115.5665 C   0  0  0  0  0  0  0  0  0  0  0  0
   -9.1501  206.3403  115.5966 C   0  0  0  0  0  0  0  0  0  0  0  0
   -9.8702  206.3402  114.4067 C   0  0  0  0  0  0  0  0  0  0  0  0
   -9.8905  206.5504  111.9367 N   0  0  0  0  0  0  0  0  0  0  0  0
   -5.6703  206.8908  114.2963 N   0  0  0  0  0  0  0  0  0  0  0  0
   -4.8601  206.6308  115.5462 O   0  0  0  0  0  0  0  0  0  0  0  0
   -4.9704  206.2810  113.0962 O   0  0  0  0  0  0  0  0  0  0  0  0
  1  2  1  0  0  0  0
  1  6  1  0  0  0  0
  1  9  1  0  0  0  0
  2  3  1  0  0  0  0
  3  4  1  0  0  0  0
  4  5  1  0  0  0  0
  5  6  1  0  0  0  0
  5 22  1  0  0  0  0
  7  8  1  0  0  0  0
  7 10  1  0  0  0  0
  8  9  1  0  0  0  0
  9 11  1  0  0  0  0
 10 11  1  0  0  0  0
 10 15  1  0  0  0  0
 11 12  1  0  0  0  0
 12 13  1  0  0  0  0
 13 14  1  0  0  0  0
 14 15  1  0  0  0  0
 16 17  1  0  0  0  0
 16 21  1  0  0  0  0
 16 22  1  0  0  0  0
 17 18  1  0  0  0  0
 18 19  1  0  0  0  0
 18 23  1  0  0  0  0
 19 20  1  0  0  0  0
 20 21  1  0  0  0  0
 23 24  1  0  0  0  0
 23 25  1  0  0  0  0
M  END
$$$$
