# created with PyMOL 2.5.0
@<TRIPOS>MOLECULE
BDB50293153
36 39 1                 
SMALL
USER_CHARGES
@<TRIPOS>ATOM
1	 H11	-10.580	205.670	127.520	 H	1	UNK0	0.000	
2	 H04	-5.430	198.670	110.020	 H	1	UNK0	0.000	
3	 H05	-13.480	197.340	109.280	 H	1	UNK0	0.000	
4	 H06	-6.890	203.680	110.150	 H	1	UNK0	0.000	
5	 H02	-9.730	215.880	116.850	 H	1	UNK0	0.000	
6	 H01	-9.300	214.490	117.080	 H	1	UNK0	0.000	
7	 H08	-10.160	211.270	125.700	 H	1	UNK0	0.000	
8	 H09	-10.890	208.730	125.120	 H	1	UNK0	0.000	
9	 H03	-6.000	196.550	111.170	 H	1	UNK0	0.000	
10	 H10	-9.930	206.370	125.600	 H	1	UNK0	0.000	
11	 H07	-16.370	217.620	114.610	 H	1	UNK0	0.000	
12	  C1	-8.560	214.610	117.090	C.2	1	UNK0	0.000	
13	  C2	-10.000	214.850	117.240	C.2	1	UNK0	0.000	
14	  C3	-12.370	225.240	116.250	C.2	1	UNK0	0.000	
15	  N1	-11.090	213.960	114.980	N.2	1	UNK0	0.000	
16	  C4	-6.810	208.260	114.790	C.2	1	UNK0	0.000	
17	  N2	-11.140	213.950	115.460	N.2	1	UNK0	0.000	
18	  N3	-6.230	199.930	112.370	N.2	1	UNK0	0.000	
19	  C5	-4.440	199.870	113.140	C.2	1	UNK0	0.000	
20	  C6	-10.210	194.560	107.340	C.2	1	UNK0	0.000	
21	  N4	-1.110	200.590	112.870	N.pl3	1	UNK0	0.000	
22	  C7	-6.190	198.640	111.190	C.2	1	UNK0	0.000	
23	  C8	-5.530	199.800	108.770	C.2	1	UNK0	0.000	
24	  C9	-6.320	200.310	110.130	C.2	1	UNK0	0.000	
25	 C10	-5.190	200.410	110.520	C.2	1	UNK0	0.000	
26	  N5	-11.950	201.910	105.050	N.2	1	UNK0	0.000	
27	  N6	-21.540	218.970	118.140	N.pl3	1	UNK0	0.000	
28	 C11	-12.780	207.350	125.620	C.2	1	UNK0	0.000	
29	 C12	-12.840	207.630	125.570	C.2	1	UNK0	0.000	
30	 C13	-10.350	206.100	128.670	C.2	1	UNK0	0.000	
31	 C14	-12.130	211.980	124.860	C.2	1	UNK0	0.000	
32	 C15	-7.300	206.030	123.700	C.2	1	UNK0	0.000	
33	 C16	-11.770	205.900	130.750	C.2	1	UNK0	0.000	
34	  N7	-2.050	203.500	118.970	N.pl3	1	UNK0	0.000	
35	  O1	-8.530	208.530	123.200	O.2	1	UNK0	0.000	
36	  O2	-1.320	218.950	121.340	O.2	1	UNK0	0.000	
@<TRIPOS>BOND
1 12 13 1
2 12 17 2
3 12 20 1
4 6 13 1
5 13 14 2
6 5 14 1
7 14 15 1
8 15 16 2
9 16 17 1
10 16 27 1
11 18 19 2
12 18 21 1
13 9 19 1
14 19 20 1
15 20 22 2
16 21 22 1
17 21 26 1
18 22 23 1
19 2 23 1
20 23 24 2
21 3 24 1
22 24 25 1
23 4 25 1
24 25 26 2
25 11 27 1
26 27 28 1
27 28 29 1
28 28 33 2
29 7 29 1
30 29 30 2
31 30 31 1
32 30 34 1
33 8 31 1
34 31 32 2
35 10 32 1
36 32 33 1
37 1 33 1
38 34 35 1
39 34 36 2
@<TRIPOS>SUBSTRUCTURE
1	UNK0	1	GROUP	1 ****	UNK
