step2_200_2000_5.0_2177.xyz.gro
  PyMOL2.5          3D                             0

 25 28  0  0  0  0  0  0  0  0999 V2000
  -12.2815  206.6953  112.7392 C   0  0  0  0  0  0  0  0  0  0  0  0
  -11.8017  206.9953  111.4691 C   0  0  0  0  0  0  0  0  0  0  0  0
  -10.4817  207.4451  111.3888 C   0  0  0  0  0  0  0  0  0  0  0  0
   -9.7014  207.5949  112.4886 N   0  0  0  0  0  0  0  0  0  0  0  0
  -10.2512  207.3050  113.6888 C   0  0  0  0  0  0  0  0  0  0  0  0
  -11.5113  206.8052  113.8490 N   0  0  0  0  0  0  0  0  0  0  0  0
  -15.6315  205.1459  114.0599 N   0  0  0  0  0  0  0  0  0  0  0  0
  -14.1914  205.2657  114.1496 C   0  0  0  0  0  0  0  0  0  0  0  0
  -13.6315  206.2056  112.9494 C   0  0  0  0  0  0  0  0  0  0  0  0
  -16.0216  206.0159  112.8799 N   0  0  0  0  0  0  0  0  0  0  0  0
  -14.8316  206.6557  112.1697 C   0  0  0  0  0  0  0  0  0  0  0  0
  -15.1517  207.4558  111.0597 C   0  0  0  0  0  0  0  0  0  0  0  0
  -16.4318  207.4660  110.6300 C   0  0  0  0  0  0  0  0  0  0  0  0
  -17.5018  206.7662  111.4302 C   0  0  0  0  0  0  0  0  0  0  0  0
  -17.3316  206.1662  112.5602 N   0  0  0  0  0  0  0  0  0  0  0  0
   -9.6706  207.8149  116.1086 C   0  0  0  0  0  0  0  0  0  0  0  0
   -8.5604  208.0748  116.9184 C   0  0  0  0  0  0  0  0  0  0  0  0
   -8.6901  208.3448  118.2984 C   0  0  0  0  0  0  0  0  0  0  0  0
   -9.9800  208.3250  118.8487 C   0  0  0  0  0  0  0  0  0  0  0  0
  -11.0902  208.0052  118.0689 C   0  0  0  0  0  0  0  0  0  0  0  0
  -10.9305  207.7352  116.7189 C   0  0  0  0  0  0  0  0  0  0  0  0
   -9.4110  207.5349  114.7586 N   0  0  0  0  0  0  0  0  0  0  0  0
   -7.5399  208.6446  119.0882 N   0  0  0  0  0  0  0  0  0  0  0  0
   -7.7396  208.7947  120.5882 O   0  0  0  0  0  0  0  0  0  0  0  0
   -6.2601  207.9344  118.7279 O   0  0  0  0  0  0  0  0  0  0  0  0
  1  2  1  0  0  0  0
  1  6  1  0  0  0  0
  1  9  1  0  0  0  0
  2  3  1  0  0  0  0
  3  4  1  0  0  0  0
  4  5  1  0  0  0  0
  5  6  1  0  0  0  0
  5 22  1  0  0  0  0
  7  8  1  0  0  0  0
  7 10  1  0  0  0  0
  8  9  1  0  0  0  0
  9 11  1  0  0  0  0
 10 11  1  0  0  0  0
 10 15  1  0  0  0  0
 11 12  1  0  0  0  0
 12 13  1  0  0  0  0
 13 14  1  0  0  0  0
 14 15  1  0  0  0  0
 16 17  1  0  0  0  0
 16 21  1  0  0  0  0
 16 22  1  0  0  0  0
 17 18  1  0  0  0  0
 18 19  1  0  0  0  0
 18 23  1  0  0  0  0
 19 20  1  0  0  0  0
 20 21  1  0  0  0  0
 23 24  1  0  0  0  0
 23 25  1  0  0  0  0
M  END
$$$$
