step2_200_2000_5.0_52593.xyz.gro
  PyMOL2.5          3D                             0

 25 28  0  0  0  0  0  0  0  0999 V2000
  -12.7795  207.5759  112.7011 C   0  0  0  0  0  0  0  0  0  0  0  0
  -13.1792  208.4161  111.6511 C   0  0  0  0  0  0  0  0  0  0  0  0
  -12.1790  208.9859  110.8913 C   0  0  0  0  0  0  0  0  0  0  0  0
  -10.8691  208.8156  111.1514 N   0  0  0  0  0  0  0  0  0  0  0  0
  -10.5494  208.0854  112.2513 C   0  0  0  0  0  0  0  0  0  0  0  0
  -11.4696  207.4255  113.0012 N   0  0  0  0  0  0  0  0  0  0  0  0
  -14.3804  204.7460  114.8006 N   0  0  0  0  0  0  0  0  0  0  0  0
  -13.3801  205.7858  114.6708 C   0  0  0  0  0  0  0  0  0  0  0  0
  -13.7398  206.7660  113.4309 C   0  0  0  0  0  0  0  0  0  0  0  0
  -15.3902  205.0363  113.7005 N   0  0  0  0  0  0  0  0  0  0  0  0
  -15.0399  206.2564  112.8807 C   0  0  0  0  0  0  0  0  0  0  0  0
  -15.9797  206.5867  111.8507 C   0  0  0  0  0  0  0  0  0  0  0  0
  -17.0699  205.8070  111.7205 C   0  0  0  0  0  0  0  0  0  0  0  0
  -17.2102  204.5569  112.5303 C   0  0  0  0  0  0  0  0  0  0  0  0
  -16.4604  204.2166  113.5503 N   0  0  0  0  0  0  0  0  0  0  0  0
   -8.6495  207.9847  113.8815 C   0  0  0  0  0  0  0  0  0  0  0  0
   -7.7394  208.9245  114.3817 C   0  0  0  0  0  0  0  0  0  0  0  0
   -7.2595  208.8342  115.7017 C   0  0  0  0  0  0  0  0  0  0  0  0
   -7.6898  207.7542  116.5015 C   0  0  0  0  0  0  0  0  0  0  0  0
   -8.5700  206.8045  116.0013 C   0  0  0  0  0  0  0  0  0  0  0  0
   -9.0499  206.9347  114.7013 C   0  0  0  0  0  0  0  0  0  0  0  0
   -9.2094  208.1750  112.6014 N   0  0  0  0  0  0  0  0  0  0  0  0
   -6.3993  209.8239  116.2719 N   0  0  0  0  0  0  0  0  0  0  0  0
   -5.8795  209.6336  117.6819 O   0  0  0  0  0  0  0  0  0  0  0  0
   -5.5890  210.7438  115.4021 O   0  0  0  0  0  0  0  0  0  0  0  0
  1  2  1  0  0  0  0
  1  6  1  0  0  0  0
  1  9  1  0  0  0  0
  2  3  1  0  0  0  0
  3  4  1  0  0  0  0
  4  5  1  0  0  0  0
  5  6  1  0  0  0  0
  5 22  1  0  0  0  0
  7  8  1  0  0  0  0
  7 10  1  0  0  0  0
  8  9  1  0  0  0  0
  9 11  1  0  0  0  0
 10 11  1  0  0  0  0
 10 15  1  0  0  0  0
 11 12  1  0  0  0  0
 12 13  1  0  0  0  0
 13 14  1  0  0  0  0
 14 15  1  0  0  0  0
 16 17  1  0  0  0  0
 16 21  1  0  0  0  0
 16 22  1  0  0  0  0
 17 18  1  0  0  0  0
 18 19  1  0  0  0  0
 18 23  1  0  0  0  0
 19 20  1  0  0  0  0
 20 21  1  0  0  0  0
 23 24  1  0  0  0  0
 23 25  1  0  0  0  0
M  END
$$$$
