@<TRIPOS>MOLECULE
BDB50293153
 25 28 0 0 0
SMALL
USER_CHARGES

@<TRIPOS>ATOM
      1 C1        -13.7900  206.3900  111.0700 C.2     1  UNK01       0.0000
      2 C2        -14.1800  206.9600  109.8500 C.2     1  UNK01       0.0000
      3 C3        -13.1800  207.5900  109.1100 C.2     1  UNK01       0.0000
      4 N1        -11.8900  207.6400  109.5100 N.2     1  UNK01       0.0000
      5 C4        -11.6000  207.0700  110.7100 C.cat   1  UNK01       0.0000
      6 N2        -12.5000  206.4400  111.4900 N.2     1  UNK01       0.0000
      7 N3        -15.5400  204.1000  113.7200 N.2     1  UNK01       0.0000
      8 C5        -14.3500  204.7200  113.1800 C.2     1  UNK01       0.0000
      9 C6        -14.7200  205.6800  111.9300 C.2     1  UNK01       0.0000
     10 N4        -16.6800  204.6300  112.8700 N.pl3   1  UNK01       0.0000
     11 C7        -16.2100  205.6000  111.7800 C.2     1  UNK01       0.0000
     12 C8        -17.2600  206.1700  111.0100 C.2     1  UNK01       0.0000
     13 C9        -18.5300  205.9100  111.3700 C.2     1  UNK01       0.0000
     14 C10       -18.8200  204.8900  112.4300 C.2     1  UNK01       0.0000
     15 N5        -17.9500  204.2400  113.1500 N.2     1  UNK01       0.0000
     16 N6        -10.2800  207.1500  111.0500 N.pl3   1  UNK01       0.0000
     17 C11        -9.7000  207.3600  112.3200 C.2     1  UNK01       0.0000
     18 C12        -8.3200  207.2500  112.4100 C.2     1  UNK01       0.0000
     19 C13        -7.6400  207.4000  113.6400 C.2     1  UNK01       0.0000
     20 C14        -8.4100  207.6900  114.7800 C.2     1  UNK01       0.0000
     21 C15        -9.7900  207.7900  114.7100 C.2     1  UNK01       0.0000
     22 C16       -10.4400  207.5900  113.4800 C.2     1  UNK01       0.0000
     23 N7         -6.2300  207.2600  113.6900 N.pl3   1  UNK01       0.0000
     24 O1         -5.6500  206.9400  115.0500 O.2     1  UNK01       0.0000
     25 O2         -5.6400  206.3300  112.6400 O.2     1  UNK01       0.0000
@<TRIPOS>UNITY_ATOM_ATTR
24 1
charge -1
@<TRIPOS>BOND
     1     1     2    1
     2     1     6    2
     3     1     9    1
     4     2     3    2
     5     3     4    1
     6     4     5    2
     7     5     6    1
     8     5    16    1
     9     7     8    2
    10     7    10    1
    11     8     9    1
    12     9    11    2
    13    10    11    1
    14    10    15    1
    15    11    12    1
    16    12    13    2
    17    13    14    1
    18    14    15    2
    19    16    17    1
    20    17    18    1
    21    17    22    2
    22    18    19    2
    23    19    20    1
    24    19    23    1
    25    20    21    2
    26    21    22    1
    27    23    24    1
    28    23    25    2
