# created with PyMOL 2.5.0
@<TRIPOS>MOLECULE
BDB50293153
36 39 1                 
SMALL
USER_CHARGES
@<TRIPOS>ATOM
1	 H11	-10.950	206.210	114.450	 H	1	UNK0	0.000	
2	 H04	-16.390	207.650	111.570	 H	1	UNK0	0.000	
3	 H05	-18.860	207.310	111.610	 H	1	UNK0	0.000	
4	 H06	-19.840	205.270	112.630	 H	1	UNK0	0.000	
5	 H02	-12.800	207.910	109.100	 H	1	UNK0	0.000	
6	 H01	-14.730	206.730	110.200	 H	1	UNK0	0.000	
7	 H08	-7.350	206.880	112.220	 H	1	UNK0	0.000	
8	 H09	-7.230	206.580	116.510	 H	1	UNK0	0.000	
9	 H03	-13.600	203.370	113.590	 H	1	UNK0	0.000	
10	 H10	-9.660	206.230	116.550	 H	1	UNK0	0.000	
11	 H07	-9.490	207.170	111.250	 H	1	UNK0	0.000	
12	  C1	-13.460	206.030	111.830	C.2	1	UNK0	0.000	
13	  C2	-13.740	206.700	110.630	C.2	1	UNK0	0.000	
14	  C3	-12.670	207.320	110.000	C.2	1	UNK0	0.000	
15	  N1	-11.400	207.240	110.470	N.2	1	UNK0	0.000	
16	  C4	-11.220	206.570	111.620	C.2	1	UNK0	0.000	
17	  N2	-12.190	205.920	112.310	N.2	1	UNK0	0.000	
18	  N3	-15.800	203.380	113.450	N.2	1	UNK0	0.000	
19	  C5	-14.470	203.920	113.270	C.2	1	UNK0	0.000	
20	  C6	-14.540	205.370	112.540	C.2	1	UNK0	0.000	
21	  N4	-16.740	204.460	112.920	N.pl3	1	UNK0	0.000	
22	  C7	-16.000	205.670	112.370	C.2	1	UNK0	0.000	
23	  C8	-16.830	206.730	111.930	C.2	1	UNK0	0.000	
24	  C9	-18.170	206.550	111.960	C.2	1	UNK0	0.000	
25	 C10	-18.740	205.300	112.570	C.2	1	UNK0	0.000	
26	  N5	-18.070	204.250	112.960	N.2	1	UNK0	0.000	
27	  N6	-9.890	206.550	111.940	N.pl3	1	UNK0	0.000	
28	 C11	-9.230	206.570	113.180	C.2	1	UNK0	0.000	
29	 C12	-7.850	206.720	113.170	C.2	1	UNK0	0.000	
30	 C13	-7.080	206.710	114.350	C.2	1	UNK0	0.000	
31	 C14	-7.770	206.530	115.570	C.2	1	UNK0	0.000	
32	 C15	-9.150	206.340	115.600	C.2	1	UNK0	0.000	
33	 C16	-9.870	206.340	114.410	C.2	1	UNK0	0.000	
34	  N7	-5.670	206.890	114.300	N.pl3	1	UNK0	0.000	
35	  O1	-4.860	206.630	115.550	O.2	1	UNK0	0.000	
36	  O2	-4.970	206.280	113.100	O.2	1	UNK0	0.000	
@<TRIPOS>BOND
1 12 13 1
2 12 17 2
3 12 20 1
4 6 13 1
5 13 14 2
6 5 14 1
7 14 15 1
8 15 16 2
9 16 17 1
10 16 27 1
11 18 19 2
12 18 21 1
13 9 19 1
14 19 20 1
15 20 22 2
16 21 22 1
17 21 26 1
18 22 23 1
19 2 23 1
20 23 24 2
21 3 24 1
22 24 25 1
23 4 25 1
24 25 26 2
25 11 27 1
26 27 28 1
27 28 29 1
28 28 33 2
29 7 29 1
30 29 30 2
31 30 31 1
32 30 34 1
33 8 31 1
34 31 32 2
35 10 32 1
36 32 33 1
37 1 33 1
38 34 35 1
39 34 36 2
@<TRIPOS>SUBSTRUCTURE
1	UNK0	1	GROUP	1 ****	UNK
