step2_200_2000_5.0_77285.xyz.gro
  PyMOL2.5          3D                             0

 25 28  0  0  0  0  0  0  0  0999 V2000
  -13.7894  206.3910  111.0652 C   0  0  0  0  0  0  0  0  0  0  0  0
  -14.1793  206.9612  109.8453 C   0  0  0  0  0  0  0  0  0  0  0  0
  -13.1792  207.5912  109.1054 C   0  0  0  0  0  0  0  0  0  0  0  0
  -11.8893  207.6411  109.5054 N   0  0  0  0  0  0  0  0  0  0  0  0
  -11.5993  207.0710  110.7054 C   0  0  0  0  0  0  0  0  0  0  0  0
  -12.4994  206.4409  111.4853 N   0  0  0  0  0  0  0  0  0  0  0  0
  -15.5396  204.1008  113.7149 N   0  0  0  0  0  0  0  0  0  0  0  0
  -14.3495  204.7208  113.1750 C   0  0  0  0  0  0  0  0  0  0  0  0
  -14.7194  205.6810  111.9251 C   0  0  0  0  0  0  0  0  0  0  0  0
  -16.6795  204.6309  112.8649 N   0  0  0  0  0  0  0  0  0  0  0  0
  -16.2094  205.6010  111.7750 C   0  0  0  0  0  0  0  0  0  0  0  0
  -17.2594  206.1712  111.0051 C   0  0  0  0  0  0  0  0  0  0  0  0
  -18.5294  205.9112  111.3650 C   0  0  0  0  0  0  0  0  0  0  0  0
  -18.8195  204.8911  112.4249 C   0  0  0  0  0  0  0  0  0  0  0  0
  -17.9495  204.2410  113.1448 N   0  0  0  0  0  0  0  0  0  0  0  0
   -9.6994  207.3607  112.3155 C   0  0  0  0  0  0  0  0  0  0  0  0
   -8.3194  207.2507  112.4056 C   0  0  0  0  0  0  0  0  0  0  0  0
   -7.6394  207.4005  113.6356 C   0  0  0  0  0  0  0  0  0  0  0  0
   -8.4095  207.6904  114.7756 C   0  0  0  0  0  0  0  0  0  0  0  0
   -9.7895  207.7905  114.7055 C   0  0  0  0  0  0  0  0  0  0  0  0
  -10.4394  207.5907  113.4755 C   0  0  0  0  0  0  0  0  0  0  0  0
  -10.2793  207.1509  111.0455 N   0  0  0  0  0  0  0  0  0  0  0  0
   -6.2295  207.2605  113.6857 N   0  0  0  0  0  0  0  0  0  0  0  0
   -5.6495  206.9403  115.0456 O   0  0  0  0  0  0  0  0  0  0  0  0
   -5.6394  206.3306  112.6356 O   0  0  0  0  0  0  0  0  0  0  0  0
  1  2  1  0  0  0  0
  1  6  1  0  0  0  0
  1  9  1  0  0  0  0
  2  3  1  0  0  0  0
  3  4  1  0  0  0  0
  4  5  1  0  0  0  0
  5  6  1  0  0  0  0
  5 22  1  0  0  0  0
  7  8  1  0  0  0  0
  7 10  1  0  0  0  0
  8  9  1  0  0  0  0
  9 11  1  0  0  0  0
 10 11  1  0  0  0  0
 10 15  1  0  0  0  0
 11 12  1  0  0  0  0
 12 13  1  0  0  0  0
 13 14  1  0  0  0  0
 14 15  1  0  0  0  0
 16 17  1  0  0  0  0
 16 21  1  0  0  0  0
 16 22  1  0  0  0  0
 17 18  1  0  0  0  0
 18 19  1  0  0  0  0
 18 23  1  0  0  0  0
 19 20  1  0  0  0  0
 20 21  1  0  0  0  0
 23 24  1  0  0  0  0
 23 25  1  0  0  0  0
M  END
$$$$
