step2_200_2000_5.0_16930.xyz.gro
  PyMOL2.5          3D                             0

 25 28  0  0  0  0  0  0  0  0999 V2000
  -12.8420  207.0096  111.3541 C   0  0  0  0  0  0  0  0  0  0  0  0
  -13.2621  207.3197  110.0542 C   0  0  0  0  0  0  0  0  0  0  0  0
  -12.2923  207.7797  109.1641 C   0  0  0  0  0  0  0  0  0  0  0  0
  -10.9922  207.8996  109.5239 N   0  0  0  0  0  0  0  0  0  0  0  0
  -10.6620  207.5895  110.7939 C   0  0  0  0  0  0  0  0  0  0  0  0
  -11.5319  207.0995  111.7240 N   0  0  0  0  0  0  0  0  0  0  0  0
  -14.6816  204.9895  114.1443 N   0  0  0  0  0  0  0  0  0  0  0  0
  -13.4617  205.5794  113.6241 C   0  0  0  0  0  0  0  0  0  0  0  0
  -13.8018  206.5195  112.3443 C   0  0  0  0  0  0  0  0  0  0  0  0
  -15.8017  205.5396  113.2745 N   0  0  0  0  0  0  0  0  0  0  0  0
  -15.2919  206.4796  112.1945 C   0  0  0  0  0  0  0  0  0  0  0  0
  -16.3219  207.0897  111.4247 C   0  0  0  0  0  0  0  0  0  0  0  0
  -17.5719  206.6398  111.5648 C   0  0  0  0  0  0  0  0  0  0  0  0
  -17.9218  205.6997  112.6748 C   0  0  0  0  0  0  0  0  0  0  0  0
  -17.0617  205.1696  113.5247 N   0  0  0  0  0  0  0  0  0  0  0  0
   -8.5118  207.6693  112.1735 C   0  0  0  0  0  0  0  0  0  0  0  0
   -7.1418  207.7592  111.9533 C   0  0  0  0  0  0  0  0  0  0  0  0
   -6.1917  207.6191  112.9732 C   0  0  0  0  0  0  0  0  0  0  0  0
   -6.6815  207.4191  114.2832 C   0  0  0  0  0  0  0  0  0  0  0  0
   -8.0515  207.3191  114.5334 C   0  0  0  0  0  0  0  0  0  0  0  0
   -8.9616  207.4193  113.4736 C   0  0  0  0  0  0  0  0  0  0  0  0
   -9.3120  207.7194  111.0436 N   0  0  0  0  0  0  0  0  0  0  0  0
   -4.8017  207.6791  112.6930 N   0  0  0  0  0  0  0  0  0  0  0  0
   -3.8816  207.0990  113.7228 O   0  0  0  0  0  0  0  0  0  0  0  0
   -4.4120  207.1292  111.3229 O   0  0  0  0  0  0  0  0  0  0  0  0
  1  2  1  0  0  0  0
  1  6  1  0  0  0  0
  1  9  1  0  0  0  0
  2  3  1  0  0  0  0
  3  4  1  0  0  0  0
  4  5  1  0  0  0  0
  5  6  1  0  0  0  0
  5 22  1  0  0  0  0
  7  8  1  0  0  0  0
  7 10  1  0  0  0  0
  8  9  1  0  0  0  0
  9 11  1  0  0  0  0
 10 11  1  0  0  0  0
 10 15  1  0  0  0  0
 11 12  1  0  0  0  0
 12 13  1  0  0  0  0
 13 14  1  0  0  0  0
 14 15  1  0  0  0  0
 16 17  1  0  0  0  0
 16 21  1  0  0  0  0
 16 22  1  0  0  0  0
 17 18  1  0  0  0  0
 18 19  1  0  0  0  0
 18 23  1  0  0  0  0
 19 20  1  0  0  0  0
 20 21  1  0  0  0  0
 23 24  1  0  0  0  0
 23 25  1  0  0  0  0
M  END
$$$$
