# created with PyMOL 2.5.0
@<TRIPOS>MOLECULE
BDB50293153
36 39 1                 
SMALL
USER_CHARGES
@<TRIPOS>ATOM
1	 H11	-10.380	207.860	117.840	 H	1	UNK0	0.000	
2	 H04	-12.640	207.890	117.220	 H	1	UNK0	0.000	
3	 H05	-14.310	206.880	118.760	 H	1	UNK0	0.000	
4	 H06	-15.650	204.900	118.100	 H	1	UNK0	0.000	
5	 H02	-8.930	208.690	111.970	 H	1	UNK0	0.000	
6	 H01	-11.200	207.590	112.120	 H	1	UNK0	0.000	
7	 H08	-6.470	209.610	117.790	 H	1	UNK0	0.000	
8	 H09	-8.680	209.330	121.470	 H	1	UNK0	0.000	
9	 H03	-12.580	205.440	112.280	 H	1	UNK0	0.000	
10	 H10	-10.530	208.230	120.250	 H	1	UNK0	0.000	
11	 H07	-7.540	209.140	115.810	 H	1	UNK0	0.000	
12	  C1	-11.090	207.470	114.290	C.2	1	UNK0	0.000	
13	  C2	-10.610	207.780	113.010	C.2	1	UNK0	0.000	
14	  C3	-9.360	208.390	112.930	C.2	1	UNK0	0.000	
15	  N1	-8.610	208.640	114.020	N.2	1	UNK0	0.000	
16	  C4	-9.140	208.310	115.220	C.2	1	UNK0	0.000	
17	  N2	-10.350	207.730	115.400	N.2	1	UNK0	0.000	
18	  N3	-13.830	204.730	113.940	N.2	1	UNK0	0.000	
19	  C5	-12.870	205.610	113.310	C.2	1	UNK0	0.000	
20	  C6	-12.320	206.700	114.380	C.2	1	UNK0	0.000	
21	  N4	-13.960	205.240	115.370	N.pl3	1	UNK0	0.000	
22	  C7	-13.070	206.430	115.650	C.2	1	UNK0	0.000	
23	  C8	-13.210	207.000	116.940	C.2	1	UNK0	0.000	
24	  C9	-14.110	206.450	117.780	C.2	1	UNK0	0.000	
25	 C10	-14.920	205.250	117.350	C.2	1	UNK0	0.000	
26	  N5	-14.850	204.650	116.200	N.2	1	UNK0	0.000	
27	  N6	-8.260	208.590	116.240	N.pl3	1	UNK0	0.000	
28	 C11	-8.430	208.770	117.630	C.2	1	UNK0	0.000	
29	 C12	-7.360	209.310	118.330	C.2	1	UNK0	0.000	
30	 C13	-7.420	209.540	119.720	C.2	1	UNK0	0.000	
31	 C14	-8.590	209.160	120.400	C.2	1	UNK0	0.000	
32	 C15	-9.640	208.550	119.720	C.2	1	UNK0	0.000	
33	 C16	-9.550	208.340	118.340	C.2	1	UNK0	0.000	
34	  N7	-6.330	210.170	120.370	N.pl3	1	UNK0	0.000	
35	  O1	-6.340	210.440	121.870	O.2	1	UNK0	0.000	
36	  O2	-4.950	209.990	119.810	O.2	1	UNK0	0.000	
@<TRIPOS>BOND
1 12 13 1
2 12 17 2
3 12 20 1
4 6 13 1
5 13 14 2
6 5 14 1
7 14 15 1
8 15 16 2
9 16 17 1
10 16 27 1
11 18 19 2
12 18 21 1
13 9 19 1
14 19 20 1
15 20 22 2
16 21 22 1
17 21 26 1
18 22 23 1
19 2 23 1
20 23 24 2
21 3 24 1
22 24 25 1
23 4 25 1
24 25 26 2
25 11 27 1
26 27 28 1
27 28 29 1
28 28 33 2
29 7 29 1
30 29 30 2
31 30 31 1
32 30 34 1
33 8 31 1
34 31 32 2
35 10 32 1
36 32 33 1
37 1 33 1
38 34 35 1
39 34 36 2
@<TRIPOS>SUBSTRUCTURE
1	UNK0	1	GROUP	1 ****	UNK
