step2_200_2000_5.0_28005.xyz.gro
  PyMOL2.5          3D                             0

 25 26  0  0  0  0  0  0  0  0999 V2000
  -16.2625  209.0774  110.5507 C   0  0  0  0  0  0  0  0  0  0  0  0
  -16.7227  208.9378  109.2407 C   0  0  0  0  0  0  0  0  0  0  0  0
  -15.8627  209.2679  108.2107 C   0  0  0  0  0  0  0  0  0  0  0  0
  -14.5726  209.6175  108.4607 N   0  0  0  0  0  0  0  0  0  0  0  0
  -14.2224  209.8271  109.7407 C   0  0  0  0  0  0  0  0  0  0  0  0
  -15.0724  209.6970  110.7808 N   0  0  0  0  0  0  0  0  0  0  0  0
  -13.9831  206.0662  113.0698 N   0  0  0  0  0  0  0  0  0  0  0  0
  -14.4329  207.1965  112.2201 C   0  0  0  0  0  0  0  0  0  0  0  0
  -16.3328  207.8472  111.3304 C   0  0  0  0  0  0  0  0  0  0  0  0
  -14.6929  206.2661  114.3999 N   0  0  0  0  0  0  0  0  0  0  0  0
  -15.6426  207.4063  114.2503 C   0  0  0  0  0  0  0  0  0  0  0  0
  -16.2324  207.6762  115.6604 C   0  0  0  0  0  0  0  0  0  0  0  0
  -16.1326  206.7459  116.6401 C   0  0  0  0  0  0  0  0  0  0  0  0
  -15.2029  205.5857  116.4398 C   0  0  0  0  0  0  0  0  0  0  0  0
  -14.4330  205.4058  115.4197 N   0  0  0  0  0  0  0  0  0  0  0  0
  -12.1923  209.6462  111.1505 C   0  0  0  0  0  0  0  0  0  0  0  0
  -11.6026  208.3960  111.3502 C   0  0  0  0  0  0  0  0  0  0  0  0
  -11.0826  208.0156  112.6000 C   0  0  0  0  0  0  0  0  0  0  0  0
  -11.1423  208.9454  113.6502 C   0  0  0  0  0  0  0  0  0  0  0  0
  -11.7220  210.2056  113.4706 C   0  0  0  0  0  0  0  0  0  0  0  0
  -12.2720  210.5260  112.2307 C   0  0  0  0  0  0  0  0  0  0  0  0
  -12.8524  209.9267  109.9406 N   0  0  0  0  0  0  0  0  0  0  0  0
  -10.5729  206.7054  112.8097 N   0  0  0  0  0  0  0  0  0  0  0  0
   -9.7329  206.4650  114.0395 O   0  0  0  0  0  0  0  0  0  0  0  0
   -9.9732  206.0256  111.5894 O   0  0  0  0  0  0  0  0  0  0  0  0
  1  2  1  0  0  0  0
  1  6  1  0  0  0  0
  1  9  1  0  0  0  0
  2  3  1  0  0  0  0
  3  4  1  0  0  0  0
  4  5  1  0  0  0  0
  5  6  1  0  0  0  0
  5 22  1  0  0  0  0
  7  8  1  0  0  0  0
  7 10  1  0  0  0  0
 10 11  1  0  0  0  0
 10 15  1  0  0  0  0
 11 12  1  0  0  0  0
 12 13  1  0  0  0  0
 13 14  1  0  0  0  0
 14 15  1  0  0  0  0
 16 17  1  0  0  0  0
 16 21  1  0  0  0  0
 16 22  1  0  0  0  0
 17 18  1  0  0  0  0
 18 19  1  0  0  0  0
 18 23  1  0  0  0  0
 19 20  1  0  0  0  0
 20 21  1  0  0  0  0
 23 24  1  0  0  0  0
 23 25  1  0  0  0  0
M  END
$$$$
