step2_200_2000_5.0_6798.xyz.gro
  PyMOL2.5          3D                             0

 25 28  0  0  0  0  0  0  0  0999 V2000
  -13.2259  205.9311  112.1982 C   0  0  0  0  0  0  0  0  0  0  0  0
  -12.9066  205.5414  110.8880 C   0  0  0  0  0  0  0  0  0  0  0  0
  -12.0267  206.3714  110.1878 C   0  0  0  0  0  0  0  0  0  0  0  0
  -11.3361  207.3710  110.7878 N   0  0  0  0  0  0  0  0  0  0  0  0
  -11.5555  207.5406  112.1080 C   0  0  0  0  0  0  0  0  0  0  0  0
  -12.5353  206.9207  112.8082 N   0  0  0  0  0  0  0  0  0  0  0  0
  -15.6462  203.1314  113.5384 N   0  0  0  0  0  0  0  0  0  0  0  0
  -14.8365  203.6815  112.4782 C   0  0  0  0  0  0  0  0  0  0  0  0
  -14.1658  205.0912  112.9484 C   0  0  0  0  0  0  0  0  0  0  0  0
  -15.5453  204.1310  114.6687 N   0  0  0  0  0  0  0  0  0  0  0  0
  -14.6351  205.3109  114.3487 C   0  0  0  0  0  0  0  0  0  0  0  0
  -14.5044  206.2605  115.3889 C   0  0  0  0  0  0  0  0  0  0  0  0
  -15.2039  206.0704  116.5192 C   0  0  0  0  0  0  0  0  0  0  0  0
  -16.1142  204.8806  116.6592 C   0  0  0  0  0  0  0  0  0  0  0  0
  -16.2349  203.8909  115.8189 N   0  0  0  0  0  0  0  0  0  0  0  0
   -9.7246  207.7495  113.8072 C   0  0  0  0  0  0  0  0  0  0  0  0
   -8.6042  208.4991  114.1869 C   0  0  0  0  0  0  0  0  0  0  0  0
   -7.7839  208.1385  115.2764 C   0  0  0  0  0  0  0  0  0  0  0  0
   -8.1439  206.9884  116.0063 C   0  0  0  0  0  0  0  0  0  0  0  0
   -9.2842  206.2588  115.6865 C   0  0  0  0  0  0  0  0  0  0  0  0
  -10.0546  206.6394  114.5970 C   0  0  0  0  0  0  0  0  0  0  0  0
  -10.5050  208.2101  112.7177 N   0  0  0  0  0  0  0  0  0  0  0  0
   -6.6335  208.8980  115.6162 N   0  0  0  0  0  0  0  0  0  0  0  0
   -7.0328  210.1679  116.3367 O   0  0  0  0  0  0  0  0  0  0  0  0
   -5.6732  208.2175  116.5655 O   0  0  0  0  0  0  0  0  0  0  0  0
  1  2  1  0  0  0  0
  1  6  1  0  0  0  0
  1  9  1  0  0  0  0
  2  3  1  0  0  0  0
  3  4  1  0  0  0  0
  4  5  1  0  0  0  0
  5  6  1  0  0  0  0
  5 22  1  0  0  0  0
  7  8  1  0  0  0  0
  7 10  1  0  0  0  0
  8  9  1  0  0  0  0
  9 11  1  0  0  0  0
 10 11  1  0  0  0  0
 10 15  1  0  0  0  0
 11 12  1  0  0  0  0
 12 13  1  0  0  0  0
 13 14  1  0  0  0  0
 14 15  1  0  0  0  0
 16 17  1  0  0  0  0
 16 21  1  0  0  0  0
 16 22  1  0  0  0  0
 17 18  1  0  0  0  0
 18 19  1  0  0  0  0
 18 23  1  0  0  0  0
 19 20  1  0  0  0  0
 20 21  1  0  0  0  0
 23 24  1  0  0  0  0
 23 25  1  0  0  0  0
M  END
$$$$
