step2_200_2000_5.0_27766.xyz.gro
  PyMOL2.5          3D                             0

 25 28  0  0  0  0  0  0  0  0999 V2000
  -12.7827  206.3390  111.2637 C   0  0  0  0  0  0  0  0  0  0  0  0
  -12.5827  206.8091  109.9737 C   0  0  0  0  0  0  0  0  0  0  0  0
  -11.4224  207.5387  109.7537 C   0  0  0  0  0  0  0  0  0  0  0  0
  -10.5222  207.7882  110.7337 N   0  0  0  0  0  0  0  0  0  0  0  0
  -10.8222  207.3380  111.9736 C   0  0  0  0  0  0  0  0  0  0  0  0
  -11.9124  206.5984  112.2736 N   0  0  0  0  0  0  0  0  0  0  0  0
  -14.6936  203.3294  112.6933 N   0  0  0  0  0  0  0  0  0  0  0  0
  -13.6036  203.8091  111.8733 C   0  0  0  0  0  0  0  0  0  0  0  0
  -13.8330  205.3793  111.5036 C   0  0  0  0  0  0  0  0  0  0  0  0
  -15.6232  204.5097  112.8537 N   0  0  0  0  0  0  0  0  0  0  0  0
  -15.1328  205.7597  112.1239 C   0  0  0  0  0  0  0  0  0  0  0  0
  -16.0023  206.8600  112.1642 C   0  0  0  0  0  0  0  0  0  0  0  0
  -17.2023  206.7003  112.7443 C   0  0  0  0  0  0  0  0  0  0  0  0
  -17.5327  205.4203  113.4541 C   0  0  0  0  0  0  0  0  0  0  0  0
  -16.7531  204.3900  113.5938 N   0  0  0  0  0  0  0  0  0  0  0  0
   -9.7818  207.5772  114.3035 C   0  0  0  0  0  0  0  0  0  0  0  0
   -8.5317  207.6966  114.9234 C   0  0  0  0  0  0  0  0  0  0  0  0
   -8.3615  207.5362  116.3133 C   0  0  0  0  0  0  0  0  0  0  0  0
   -9.5115  207.2665  117.0834 C   0  0  0  0  0  0  0  0  0  0  0  0
  -10.7616  207.1471  116.4836 C   0  0  0  0  0  0  0  0  0  0  0  0
  -10.8918  207.2875  115.1036 C   0  0  0  0  0  0  0  0  0  0  0  0
   -9.8320  207.6275  112.8935 N   0  0  0  0  0  0  0  0  0  0  0  0
   -7.0814  207.6656  116.9232 N   0  0  0  0  0  0  0  0  0  0  0  0
   -6.8715  206.9553  118.2430 O   0  0  0  0  0  0  0  0  0  0  0  0
   -5.8516  207.5154  116.0430 O   0  0  0  0  0  0  0  0  0  0  0  0
  1  2  1  0  0  0  0
  1  6  1  0  0  0  0
  1  9  1  0  0  0  0
  2  3  1  0  0  0  0
  3  4  1  0  0  0  0
  4  5  1  0  0  0  0
  5  6  1  0  0  0  0
  5 22  1  0  0  0  0
  7  8  1  0  0  0  0
  7 10  1  0  0  0  0
  8  9  1  0  0  0  0
  9 11  1  0  0  0  0
 10 11  1  0  0  0  0
 10 15  1  0  0  0  0
 11 12  1  0  0  0  0
 12 13  1  0  0  0  0
 13 14  1  0  0  0  0
 14 15  1  0  0  0  0
 16 17  1  0  0  0  0
 16 21  1  0  0  0  0
 16 22  1  0  0  0  0
 17 18  1  0  0  0  0
 18 19  1  0  0  0  0
 18 23  1  0  0  0  0
 19 20  1  0  0  0  0
 20 21  1  0  0  0  0
 23 24  1  0  0  0  0
 23 25  1  0  0  0  0
M  END
$$$$
