# created with PyMOL 2.5.0
@<TRIPOS>MOLECULE
BDB50293153
36 39 1                 
SMALL
USER_CHARGES
@<TRIPOS>ATOM
1	 H11	-10.920	206.060	114.390	 H	1	UNK0	0.000	
2	 H04	-13.950	207.170	115.200	 H	1	UNK0	0.000	
3	 H05	-15.240	206.830	117.300	 H	1	UNK0	0.000	
4	 H06	-16.680	204.850	117.610	 H	1	UNK0	0.000	
5	 H02	-11.740	206.160	109.180	 H	1	UNK0	0.000	
6	 H01	-13.180	204.590	110.460	 H	1	UNK0	0.000	
7	 H08	-8.350	209.390	113.620	 H	1	UNK0	0.000	
8	 H09	-7.530	206.680	116.870	 H	1	UNK0	0.000	
9	 H03	-14.700	203.140	111.560	 H	1	UNK0	0.000	
10	 H10	-9.560	205.400	116.290	 H	1	UNK0	0.000	
11	 H07	-9.900	208.510	111.960	 H	1	UNK0	0.000	
12	  C1	-13.210	205.930	112.210	C.2	1	UNK0	0.000	
13	  C2	-12.890	205.540	110.900	C.2	1	UNK0	0.000	
14	  C3	-12.010	206.370	110.200	C.2	1	UNK0	0.000	
15	  N1	-11.320	207.370	110.800	N.2	1	UNK0	0.000	
16	  C4	-11.540	207.540	112.120	C.2	1	UNK0	0.000	
17	  N2	-12.520	206.920	112.820	N.2	1	UNK0	0.000	
18	  N3	-15.630	203.130	113.550	N.2	1	UNK0	0.000	
19	  C5	-14.820	203.680	112.490	C.2	1	UNK0	0.000	
20	  C6	-14.150	205.090	112.960	C.2	1	UNK0	0.000	
21	  N4	-15.530	204.130	114.680	N.pl3	1	UNK0	0.000	
22	  C7	-14.620	205.310	114.360	C.2	1	UNK0	0.000	
23	  C8	-14.490	206.260	115.400	C.2	1	UNK0	0.000	
24	  C9	-15.190	206.070	116.530	C.2	1	UNK0	0.000	
25	 C10	-16.100	204.880	116.670	C.2	1	UNK0	0.000	
26	  N5	-16.220	203.890	115.830	N.2	1	UNK0	0.000	
27	  N6	-10.490	208.210	112.730	N.pl3	1	UNK0	0.000	
28	 C11	-9.710	207.750	113.820	C.2	1	UNK0	0.000	
29	 C12	-8.590	208.500	114.200	C.2	1	UNK0	0.000	
30	 C13	-7.770	208.140	115.290	C.2	1	UNK0	0.000	
31	 C14	-8.130	206.990	116.020	C.2	1	UNK0	0.000	
32	 C15	-9.270	206.260	115.700	C.2	1	UNK0	0.000	
33	 C16	-10.040	206.640	114.610	C.2	1	UNK0	0.000	
34	  N7	-6.620	208.900	115.630	N.pl3	1	UNK0	0.000	
35	  O1	-7.020	210.170	116.350	O.2	1	UNK0	0.000	
36	  O2	-5.660	208.220	116.580	O.2	1	UNK0	0.000	
@<TRIPOS>BOND
1 12 13 1
2 12 17 2
3 12 20 1
4 6 13 1
5 13 14 2
6 5 14 1
7 14 15 1
8 15 16 2
9 16 17 1
10 16 27 1
11 18 19 2
12 18 21 1
13 9 19 1
14 19 20 1
15 20 22 2
16 21 22 1
17 21 26 1
18 22 23 1
19 2 23 1
20 23 24 2
21 3 24 1
22 24 25 1
23 4 25 1
24 25 26 2
25 11 27 1
26 27 28 1
27 28 29 1
28 28 33 2
29 7 29 1
30 29 30 2
31 30 31 1
32 30 34 1
33 8 31 1
34 31 32 2
35 10 32 1
36 32 33 1
37 1 33 1
38 34 35 1
39 34 36 2
@<TRIPOS>SUBSTRUCTURE
1	UNK0	1	GROUP	1 ****	UNK
