@<TRIPOS>MOLECULE
BDB50293153
 25 28 0 0 0
SMALL
USER_CHARGES

@<TRIPOS>ATOM
      1 C1        -13.3300  206.0900  111.1100 C.2     1  UNK01       0.0000
      2 C2        -13.5400  206.7300  109.8900 C.2     1  UNK01       0.0000
      3 C3        -12.4400  207.3500  109.3200 C.2     1  UNK01       0.0000
      4 N1        -11.2000  207.3300  109.9000 N.2     1  UNK01       0.0000
      5 C4        -11.1100  206.7200  111.1000 C.cat   1  UNK01       0.0000
      6 N2        -12.1200  206.0400  111.7000 N.2     1  UNK01       0.0000
      7 N3        -15.7500  203.7100  113.0300 N.2     1  UNK01       0.0000
      8 C5        -14.4100  204.0600  112.6100 C.2     1  UNK01       0.0000
      9 C6        -14.4100  205.4600  111.8200 C.2     1  UNK01       0.0000
     10 N4        -16.5900  204.9000  112.6200 N.pl3   1  UNK01       0.0000
     11 C7        -15.8300  205.9400  111.8400 C.2     1  UNK01       0.0000
     12 C8        -16.5700  207.0900  111.5000 C.2     1  UNK01       0.0000
     13 C9        -17.9000  207.0700  111.6800 C.2     1  UNK01       0.0000
     14 C10       -18.5400  205.9300  112.4100 C.2     1  UNK01       0.0000
     15 N5        -17.9000  204.9400  112.9600 N.2     1  UNK01       0.0000
     16 N6         -9.8800  206.8000  111.7400 N.pl3   1  UNK01       0.0000
     17 C11        -9.6600  207.4200  112.9900 C.2     1  UNK01       0.0000
     18 C12        -8.4100  207.9800  113.2700 C.2     1  UNK01       0.0000
     19 C13        -8.1300  208.6200  114.5000 C.2     1  UNK01       0.0000
     20 C14        -9.1500  208.6300  115.4700 C.2     1  UNK01       0.0000
     21 C15       -10.3800  208.0400  115.2400 C.2     1  UNK01       0.0000
     22 C16       -10.6300  207.4400  114.0100 C.2     1  UNK01       0.0000
     23 N7         -6.8700  209.1800  114.8000 N.pl3   1  UNK01       0.0000
     24 O1         -6.8000  210.4600  115.5800 O.2     1  UNK01       0.0000
     25 O2         -5.7200  208.9900  113.8800 O.2     1  UNK01       0.0000
@<TRIPOS>UNITY_ATOM_ATTR
24 1
charge -1
@<TRIPOS>BOND
     1     1     2    1
     2     1     6    2
     3     1     9    1
     4     2     3    2
     5     3     4    1
     6     4     5    2
     7     5     6    1
     8     5    16    1
     9     7     8    2
    10     7    10    1
    11     8     9    1
    12     9    11    2
    13    10    11    1
    14    10    15    1
    15    11    12    1
    16    12    13    2
    17    13    14    1
    18    14    15    2
    19    16    17    1
    20    17    18    1
    21    17    22    2
    22    18    19    2
    23    19    20    1
    24    19    23    1
    25    20    21    2
    26    21    22    1
    27    23    24    1
    28    23    25    2
