# created with PyMOL 2.5.0
@<TRIPOS>MOLECULE
BDB50293153
36 39 1                 
SMALL
USER_CHARGES
@<TRIPOS>ATOM
1	 H11	-11.070	207.980	115.010	 H	1	UNK0	0.000	
2	 H04	-15.680	208.600	110.630	 H	1	UNK0	0.000	
3	 H05	-18.140	208.210	110.530	 H	1	UNK0	0.000	
4	 H06	-19.250	206.610	112.040	 H	1	UNK0	0.000	
5	 H02	-11.500	208.340	108.980	 H	1	UNK0	0.000	
6	 H01	-13.690	207.560	109.960	 H	1	UNK0	0.000	
7	 H08	-7.010	208.200	113.690	 H	1	UNK0	0.000	
8	 H09	-7.950	207.050	117.740	 H	1	UNK0	0.000	
9	 H03	-13.230	205.590	114.520	 H	1	UNK0	0.000	
10	 H10	-10.350	207.310	117.240	 H	1	UNK0	0.000	
11	 H07	-8.740	208.600	112.140	 H	1	UNK0	0.000	
12	  C1	-12.830	207.470	111.950	C.2	1	UNK0	0.000	
13	  C2	-12.820	207.720	110.580	C.2	1	UNK0	0.000	
14	  C3	-11.610	208.140	110.040	C.2	1	UNK0	0.000	
15	  N1	-10.510	208.340	110.800	N.2	1	UNK0	0.000	
16	  C4	-10.620	208.100	112.130	C.2	1	UNK0	0.000	
17	  N2	-11.730	207.620	112.720	N.2	1	UNK0	0.000	
18	  N3	-15.400	205.470	114.120	N.2	1	UNK0	0.000	
19	  C5	-14.050	205.930	113.900	C.2	1	UNK0	0.000	
20	  C6	-14.000	206.950	112.640	C.2	1	UNK0	0.000	
21	  N4	-16.220	206.170	113.060	N.pl3	1	UNK0	0.000	
22	  C7	-15.410	207.080	112.150	C.2	1	UNK0	0.000	
23	  C8	-16.160	207.810	111.210	C.2	1	UNK0	0.000	
24	  C9	-17.490	207.610	111.140	C.2	1	UNK0	0.000	
25	 C10	-18.150	206.660	112.110	C.2	1	UNK0	0.000	
26	  N5	-17.550	205.970	113.030	N.2	1	UNK0	0.000	
27	  N6	-9.470	208.380	112.820	N.pl3	1	UNK0	0.000	
28	 C11	-9.090	208.090	114.170	C.2	1	UNK0	0.000	
29	 C12	-7.730	207.990	114.470	C.2	1	UNK0	0.000	
30	 C13	-7.270	207.640	115.760	C.2	1	UNK0	0.000	
31	 C14	-8.260	207.350	116.740	C.2	1	UNK0	0.000	
32	 C15	-9.610	207.480	116.470	C.2	1	UNK0	0.000	
33	 C16	-10.020	207.860	115.190	C.2	1	UNK0	0.000	
34	  N7	-5.910	207.540	116.060	N.pl3	1	UNK0	0.000	
35	  O1	-4.970	208.340	115.190	O.2	1	UNK0	0.000	
36	  O2	-5.550	207.710	117.530	O.2	1	UNK0	0.000	
@<TRIPOS>BOND
1 12 13 1
2 12 17 2
3 12 20 1
4 6 13 1
5 13 14 2
6 5 14 1
7 14 15 1
8 15 16 2
9 16 17 1
10 16 27 1
11 18 19 2
12 18 21 1
13 9 19 1
14 19 20 1
15 20 22 2
16 21 22 1
17 21 26 1
18 22 23 1
19 2 23 1
20 23 24 2
21 3 24 1
22 24 25 1
23 4 25 1
24 25 26 2
25 11 27 1
26 27 28 1
27 28 29 1
28 28 33 2
29 7 29 1
30 29 30 2
31 30 31 1
32 30 34 1
33 8 31 1
34 31 32 2
35 10 32 1
36 32 33 1
37 1 33 1
38 34 35 1
39 34 36 2
@<TRIPOS>SUBSTRUCTURE
1	UNK0	1	GROUP	1 ****	UNK
