@<TRIPOS>MOLECULE
BDB50293153
 25 28 0 0 0
SMALL
USER_CHARGES

@<TRIPOS>ATOM
      1 C1        -12.2700  206.7000  112.7400 C.2     1  UNK01       0.0000
      2 C2        -11.7900  207.0000  111.4700 C.2     1  UNK01       0.0000
      3 C3        -10.4700  207.4500  111.3900 C.2     1  UNK01       0.0000
      4 N1         -9.6900  207.6000  112.4900 N.2     1  UNK01       0.0000
      5 C4        -10.2400  207.3100  113.6900 C.cat   1  UNK01       0.0000
      6 N2        -11.5000  206.8100  113.8500 N.2     1  UNK01       0.0000
      7 N3        -15.6200  205.1500  114.0600 N.2     1  UNK01       0.0000
      8 C5        -14.1800  205.2700  114.1500 C.2     1  UNK01       0.0000
      9 C6        -13.6200  206.2100  112.9500 C.2     1  UNK01       0.0000
     10 N4        -16.0100  206.0200  112.8800 N.pl3   1  UNK01       0.0000
     11 C7        -14.8200  206.6600  112.1700 C.2     1  UNK01       0.0000
     12 C8        -15.1400  207.4600  111.0600 C.2     1  UNK01       0.0000
     13 C9        -16.4200  207.4700  110.6300 C.2     1  UNK01       0.0000
     14 C10       -17.4900  206.7700  111.4300 C.2     1  UNK01       0.0000
     15 N5        -17.3200  206.1700  112.5600 N.2     1  UNK01       0.0000
     16 N6         -9.4000  207.5400  114.7600 N.pl3   1  UNK01       0.0000
     17 C11        -9.6600  207.8200  116.1100 C.2     1  UNK01       0.0000
     18 C12        -8.5500  208.0800  116.9200 C.2     1  UNK01       0.0000
     19 C13        -8.6800  208.3500  118.3000 C.2     1  UNK01       0.0000
     20 C14        -9.9700  208.3300  118.8500 C.2     1  UNK01       0.0000
     21 C15       -11.0800  208.0100  118.0700 C.2     1  UNK01       0.0000
     22 C16       -10.9200  207.7400  116.7200 C.2     1  UNK01       0.0000
     23 N7         -7.5300  208.6500  119.0900 N.pl3   1  UNK01       0.0000
     24 O1         -7.7300  208.8000  120.5900 O.2     1  UNK01       0.0000
     25 O2         -6.2500  207.9400  118.7300 O.2     1  UNK01       0.0000
@<TRIPOS>UNITY_ATOM_ATTR
24 1
charge -1
@<TRIPOS>BOND
     1     1     2    1
     2     1     6    2
     3     1     9    1
     4     2     3    2
     5     3     4    1
     6     4     5    2
     7     5     6    1
     8     5    16    1
     9     7     8    2
    10     7    10    1
    11     8     9    1
    12     9    11    2
    13    10    11    1
    14    10    15    1
    15    11    12    1
    16    12    13    2
    17    13    14    1
    18    14    15    2
    19    16    17    1
    20    17    18    1
    21    17    22    2
    22    18    19    2
    23    19    20    1
    24    19    23    1
    25    20    21    2
    26    21    22    1
    27    23    24    1
    28    23    25    2
