# created with PyMOL 2.5.0
@<TRIPOS>MOLECULE
BDB50293153
36 39 1                 
SMALL
USER_CHARGES
@<TRIPOS>ATOM
1	 H11	-11.510	207.670	113.440	 H	1	UNK0	0.000	
2	 H04	-17.060	206.840	110.180	 H	1	UNK0	0.000	
3	 H05	-19.370	206.380	110.880	 H	1	UNK0	0.000	
4	 H06	-19.890	204.730	112.640	 H	1	UNK0	0.000	
5	 H02	-13.400	208.050	108.150	 H	1	UNK0	0.000	
6	 H01	-15.170	206.880	109.470	 H	1	UNK0	0.000	
7	 H08	-7.750	207.070	111.510	 H	1	UNK0	0.000	
8	 H09	-7.920	207.840	115.740	 H	1	UNK0	0.000	
9	 H03	-13.370	204.510	113.620	 H	1	UNK0	0.000	
10	 H10	-10.380	208.000	115.600	 H	1	UNK0	0.000	
11	 H07	-9.810	207.640	110.300	 H	1	UNK0	0.000	
12	  C1	-13.790	206.390	111.070	C.2	1	UNK0	0.000	
13	  C2	-14.180	206.960	109.850	C.2	1	UNK0	0.000	
14	  C3	-13.180	207.590	109.110	C.2	1	UNK0	0.000	
15	  N1	-11.890	207.640	109.510	N.2	1	UNK0	0.000	
16	  C4	-11.600	207.070	110.710	C.2	1	UNK0	0.000	
17	  N2	-12.500	206.440	111.490	N.2	1	UNK0	0.000	
18	  N3	-15.540	204.100	113.720	N.2	1	UNK0	0.000	
19	  C5	-14.350	204.720	113.180	C.2	1	UNK0	0.000	
20	  C6	-14.720	205.680	111.930	C.2	1	UNK0	0.000	
21	  N4	-16.680	204.630	112.870	N.pl3	1	UNK0	0.000	
22	  C7	-16.210	205.600	111.780	C.2	1	UNK0	0.000	
23	  C8	-17.260	206.170	111.010	C.2	1	UNK0	0.000	
24	  C9	-18.530	205.910	111.370	C.2	1	UNK0	0.000	
25	 C10	-18.820	204.890	112.430	C.2	1	UNK0	0.000	
26	  N5	-17.950	204.240	113.150	N.2	1	UNK0	0.000	
27	  N6	-10.280	207.150	111.050	N.pl3	1	UNK0	0.000	
28	 C11	-9.700	207.360	112.320	C.2	1	UNK0	0.000	
29	 C12	-8.320	207.250	112.410	C.2	1	UNK0	0.000	
30	 C13	-7.640	207.400	113.640	C.2	1	UNK0	0.000	
31	 C14	-8.410	207.690	114.780	C.2	1	UNK0	0.000	
32	 C15	-9.790	207.790	114.710	C.2	1	UNK0	0.000	
33	 C16	-10.440	207.590	113.480	C.2	1	UNK0	0.000	
34	  N7	-6.230	207.260	113.690	N.pl3	1	UNK0	0.000	
35	  O1	-5.650	206.940	115.050	O.2	1	UNK0	0.000	
36	  O2	-5.640	206.330	112.640	O.2	1	UNK0	0.000	
@<TRIPOS>BOND
1 12 13 1
2 12 17 2
3 12 20 1
4 6 13 1
5 13 14 2
6 5 14 1
7 14 15 1
8 15 16 2
9 16 17 1
10 16 27 1
11 18 19 2
12 18 21 1
13 9 19 1
14 19 20 1
15 20 22 2
16 21 22 1
17 21 26 1
18 22 23 1
19 2 23 1
20 23 24 2
21 3 24 1
22 24 25 1
23 4 25 1
24 25 26 2
25 11 27 1
26 27 28 1
27 28 29 1
28 28 33 2
29 7 29 1
30 29 30 2
31 30 31 1
32 30 34 1
33 8 31 1
34 31 32 2
35 10 32 1
36 32 33 1
37 1 33 1
38 34 35 1
39 34 36 2
@<TRIPOS>SUBSTRUCTURE
1	UNK0	1	GROUP	1 ****	UNK
