@<TRIPOS>MOLECULE
BDB50293153
 25 28 0 0 0
SMALL
USER_CHARGES

@<TRIPOS>ATOM
      1 C1        -12.7700  206.3400  111.2700 C.2     1  UNK01       0.0000
      2 C2        -12.5700  206.8100  109.9800 C.2     1  UNK01       0.0000
      3 C3        -11.4100  207.5400  109.7600 C.2     1  UNK01       0.0000
      4 N1        -10.5100  207.7900  110.7400 N.2     1  UNK01       0.0000
      5 C4        -10.8100  207.3400  111.9800 C.cat   1  UNK01       0.0000
      6 N2        -11.9000  206.6000  112.2800 N.2     1  UNK01       0.0000
      7 N3        -14.6800  203.3300  112.7000 N.2     1  UNK01       0.0000
      8 C5        -13.5900  203.8100  111.8800 C.2     1  UNK01       0.0000
      9 C6        -13.8200  205.3800  111.5100 C.2     1  UNK01       0.0000
     10 N4        -15.6100  204.5100  112.8600 N.pl3   1  UNK01       0.0000
     11 C7        -15.1200  205.7600  112.1300 C.2     1  UNK01       0.0000
     12 C8        -15.9900  206.8600  112.1700 C.2     1  UNK01       0.0000
     13 C9        -17.1900  206.7000  112.7500 C.2     1  UNK01       0.0000
     14 C10       -17.5200  205.4200  113.4600 C.2     1  UNK01       0.0000
     15 N5        -16.7400  204.3900  113.6000 N.2     1  UNK01       0.0000
     16 N6         -9.8200  207.6300  112.9000 N.pl3   1  UNK01       0.0000
     17 C11        -9.7700  207.5800  114.3100 C.2     1  UNK01       0.0000
     18 C12        -8.5200  207.7000  114.9300 C.2     1  UNK01       0.0000
     19 C13        -8.3500  207.5400  116.3200 C.2     1  UNK01       0.0000
     20 C14        -9.5000  207.2700  117.0900 C.2     1  UNK01       0.0000
     21 C15       -10.7500  207.1500  116.4900 C.2     1  UNK01       0.0000
     22 C16       -10.8800  207.2900  115.1100 C.2     1  UNK01       0.0000
     23 N7         -7.0700  207.6700  116.9300 N.pl3   1  UNK01       0.0000
     24 O1         -6.8600  206.9600  118.2500 O.2     1  UNK01       0.0000
     25 O2         -5.8400  207.5200  116.0500 O.2     1  UNK01       0.0000
@<TRIPOS>UNITY_ATOM_ATTR
24 1
charge -1
@<TRIPOS>BOND
     1     1     2    1
     2     1     6    2
     3     1     9    1
     4     2     3    2
     5     3     4    1
     6     4     5    2
     7     5     6    1
     8     5    16    1
     9     7     8    2
    10     7    10    1
    11     8     9    1
    12     9    11    2
    13    10    11    1
    14    10    15    1
    15    11    12    1
    16    12    13    2
    17    13    14    1
    18    14    15    2
    19    16    17    1
    20    17    18    1
    21    17    22    2
    22    18    19    2
    23    19    20    1
    24    19    23    1
    25    20    21    2
    26    21    22    1
    27    23    24    1
    28    23    25    2
