# created with PyMOL 2.5.0
@<TRIPOS>MOLECULE
BDB50293153
36 39 1                 
SMALL
USER_CHARGES
@<TRIPOS>ATOM
1	 H11	-10.040	205.390	114.050	 H	1	UNK0	0.000	
2	 H04	-15.540	206.530	110.110	 H	1	UNK0	0.000	
3	 H05	-17.960	205.980	110.120	 H	1	UNK0	0.000	
4	 H06	-18.880	204.290	111.660	 H	1	UNK0	0.000	
5	 H02	-11.670	207.300	108.640	 H	1	UNK0	0.000	
6	 H01	-13.510	205.890	109.590	 H	1	UNK0	0.000	
7	 H08	-7.920	209.090	113.720	 H	1	UNK0	0.000	
8	 H09	-7.980	206.900	117.450	 H	1	UNK0	0.000	
9	 H03	-12.820	204.140	114.240	 H	1	UNK0	0.000	
10	 H10	-9.370	205.170	116.410	 H	1	UNK0	0.000	
11	 H07	-8.890	208.070	111.780	 H	1	UNK0	0.000	
12	  C1	-12.610	205.910	111.560	C.2	1	UNK0	0.000	
13	  C2	-12.690	206.220	110.210	C.2	1	UNK0	0.000	
14	  C3	-11.640	206.960	109.670	C.2	1	UNK0	0.000	
15	  N1	-10.550	207.310	110.380	N.2	1	UNK0	0.000	
16	  C4	-10.520	206.940	111.680	C.2	1	UNK0	0.000	
17	  N2	-11.520	206.250	112.300	N.2	1	UNK0	0.000	
18	  N3	-14.920	203.660	113.780	N.2	1	UNK0	0.000	
19	  C5	-13.650	204.320	113.560	C.2	1	UNK0	0.000	
20	  C6	-13.700	205.250	112.240	C.2	1	UNK0	0.000	
21	  N4	-15.820	204.180	112.660	N.pl3	1	UNK0	0.000	
22	  C7	-15.110	205.150	111.730	C.2	1	UNK0	0.000	
23	  C8	-15.930	205.760	110.750	C.2	1	UNK0	0.000	
24	  C9	-17.240	205.460	110.750	C.2	1	UNK0	0.000	
25	 C10	-17.790	204.460	111.720	C.2	1	UNK0	0.000	
26	  N5	-17.110	203.790	112.620	N.2	1	UNK0	0.000	
27	  N6	-9.410	207.410	112.380	N.pl3	1	UNK0	0.000	
28	 C11	-9.010	207.240	113.710	C.2	1	UNK0	0.000	
29	 C12	-8.230	208.230	114.320	C.2	1	UNK0	0.000	
30	 C13	-7.860	208.160	115.680	C.2	1	UNK0	0.000	
31	 C14	-8.260	207.020	116.410	C.2	1	UNK0	0.000	
32	 C15	-9.050	206.040	115.820	C.2	1	UNK0	0.000	
33	 C16	-9.430	206.160	114.500	C.2	1	UNK0	0.000	
34	  N7	-7.100	209.190	116.320	N.pl3	1	UNK0	0.000	
35	  O1	-7.080	209.160	117.840	O.2	1	UNK0	0.000	
36	  O2	-7.370	210.580	115.840	O.2	1	UNK0	0.000	
@<TRIPOS>BOND
1 12 13 1
2 12 17 2
3 12 20 1
4 6 13 1
5 13 14 2
6 5 14 1
7 14 15 1
8 15 16 2
9 16 17 1
10 16 27 1
11 18 19 2
12 18 21 1
13 9 19 1
14 19 20 1
15 20 22 2
16 21 22 1
17 21 26 1
18 22 23 1
19 2 23 1
20 23 24 2
21 3 24 1
22 24 25 1
23 4 25 1
24 25 26 2
25 11 27 1
26 27 28 1
27 28 29 1
28 28 33 2
29 7 29 1
30 29 30 2
31 30 31 1
32 30 34 1
33 8 31 1
34 31 32 2
35 10 32 1
36 32 33 1
37 1 33 1
38 34 35 1
39 34 36 2
@<TRIPOS>SUBSTRUCTURE
1	UNK0	1	GROUP	1 ****	UNK
