@<TRIPOS>MOLECULE
BDB50293153
 25 28 0 0 0
SMALL
USER_CHARGES

@<TRIPOS>ATOM
      1 C1        -16.2600  209.0800  110.5600 C.2     1  UNK01       0.0000
      2 C2        -16.7200  208.9400  109.2500 C.2     1  UNK01       0.0000
      3 C3        -15.8600  209.2700  108.2200 C.2     1  UNK01       0.0000
      4 N1        -14.5700  209.6200  108.4700 N.2     1  UNK01       0.0000
      5 C4        -14.2200  209.8300  109.7500 C.cat   1  UNK01       0.0000
      6 N2        -15.0700  209.7000  110.7900 N.2     1  UNK01       0.0000
      7 N3        -13.9800  206.0700  113.0800 N.2     1  UNK01       0.0000
      8 C5        -14.4300  207.2000  112.2300 C.2     1  UNK01       0.0000
      9 C6        -16.3300  207.8500  111.3400 C.2     1  UNK01       0.0000
     10 N4        -14.6900  206.2700  114.4100 N.pl3   1  UNK01       0.0000
     11 C7        -15.6400  207.4100  114.2600 C.2     1  UNK01       0.0000
     12 C8        -16.2300  207.6800  115.6700 C.2     1  UNK01       0.0000
     13 C9        -16.1300  206.7500  116.6500 C.2     1  UNK01       0.0000
     14 C10       -15.2000  205.5900  116.4500 C.2     1  UNK01       0.0000
     15 N5        -14.4300  205.4100  115.4300 N.2     1  UNK01       0.0000
     16 N6        -12.8500  209.9300  109.9500 N.pl3   1  UNK01       0.0000
     17 C11       -12.1900  209.6500  111.1600 C.2     1  UNK01       0.0000
     18 C12       -11.6000  208.4000  111.3600 C.2     1  UNK01       0.0000
     19 C13       -11.0800  208.0200  112.6100 C.2     1  UNK01       0.0000
     20 C14       -11.1400  208.9500  113.6600 C.2     1  UNK01       0.0000
     21 C15       -11.7200  210.2100  113.4800 C.2     1  UNK01       0.0000
     22 C16       -12.2700  210.5300  112.2400 C.2     1  UNK01       0.0000
     23 N7        -10.5700  206.7100  112.8200 N.pl3   1  UNK01       0.0000
     24 O1         -9.7300  206.4700  114.0500 O.2     1  UNK01       0.0000
     25 O2         -9.9700  206.0300  111.6000 O.2     1  UNK01       0.0000
@<TRIPOS>UNITY_ATOM_ATTR
24 1
charge -1
@<TRIPOS>BOND
     1     1     2    1
     2     1     6    2
     3     1     9    1
     4     2     3    2
     5     3     4    1
     6     4     5    2
     7     5     6    1
     8     5    16    1
     9     7     8    2
    10     7    10    1
    11     8     9    1
    12     9    11    2
    13    10    11    1
    14    10    15    1
    15    11    12    1
    16    12    13    2
    17    13    14    1
    18    14    15    2
    19    16    17    1
    20    17    18    1
    21    17    22    2
    22    18    19    2
    23    19    20    1
    24    19    23    1
    25    20    21    2
    26    21    22    1
    27    23    24    1
    28    23    25    2
