# created with PyMOL 2.5.0
@<TRIPOS>MOLECULE
BDB50293153
36 39 1                 
SMALL
USER_CHARGES
@<TRIPOS>ATOM
1	 H11	-11.300	206.700	121.410	 H	1	UNK0	0.000	
2	 H04	-19.550	200.110	116.680	 H	1	UNK0	0.000	
3	 H05	-13.460	198.430	111.010	 H	1	UNK0	0.000	
4	 H06	-14.150	201.070	109.740	 H	1	UNK0	0.000	
5	 H02	-10.960	212.930	103.520	 H	1	UNK0	0.000	
6	 H01	-13.660	215.150	106.060	 H	1	UNK0	0.000	
7	 H08	-13.170	204.000	116.510	 H	1	UNK0	0.000	
8	 H09	-11.500	206.280	114.810	 H	1	UNK0	0.000	
9	 H03	-17.770	205.450	114.030	 H	1	UNK0	0.000	
10	 H10	-10.840	208.220	116.410	 H	1	UNK0	0.000	
11	 H07	-9.680	212.040	120.120	 H	1	UNK0	0.000	
12	  C1	-13.440	201.230	106.340	C.2	1	UNK0	0.000	
13	  C2	-9.780	213.730	101.860	C.2	1	UNK0	0.000	
14	  C3	-12.180	211.010	104.470	C.2	1	UNK0	0.000	
15	  N1	-19.060	211.360	111.430	N.2	1	UNK0	0.000	
16	  C4	-12.910	210.510	108.710	C.2	1	UNK0	0.000	
17	  N2	-10.820	206.660	104.450	N.2	1	UNK0	0.000	
18	  N3	-13.830	203.600	117.900	N.2	1	UNK0	0.000	
19	  C5	-19.750	202.540	116.960	C.2	1	UNK0	0.000	
20	  C6	-14.990	203.310	112.400	C.2	1	UNK0	0.000	
21	  N4	-19.520	204.140	115.880	N.pl3	1	UNK0	0.000	
22	  C7	-19.320	200.120	116.550	C.2	1	UNK0	0.000	
23	  C8	-19.360	200.900	116.300	C.2	1	UNK0	0.000	
24	  C9	-14.580	195.490	120.540	C.2	1	UNK0	0.000	
25	 C10	-14.090	200.770	111.450	C.2	1	UNK0	0.000	
26	  N5	-18.930	203.010	114.750	N.2	1	UNK0	0.000	
27	  N6	-13.770	211.660	116.530	N.pl3	1	UNK0	0.000	
28	 C11	-16.350	206.150	117.390	C.2	1	UNK0	0.000	
29	 C12	-11.050	200.310	113.740	C.2	1	UNK0	0.000	
30	 C13	-13.290	207.440	119.010	C.2	1	UNK0	0.000	
31	 C14	-11.970	207.350	116.670	C.2	1	UNK0	0.000	
32	 C15	-14.560	206.910	117.070	C.2	1	UNK0	0.000	
33	 C16	-11.150	210.880	121.330	C.2	1	UNK0	0.000	
34	  N7	-10.910	215.250	113.320	N.pl3	1	UNK0	0.000	
35	  O1	-18.400	213.070	105.980	O.2	1	UNK0	0.000	
36	  O2	-11.840	219.700	106.930	O.2	1	UNK0	0.000	
@<TRIPOS>BOND
1 12 13 1
2 12 17 2
3 12 20 1
4 6 13 1
5 13 14 2
6 5 14 1
7 14 15 1
8 15 16 2
9 16 17 1
10 16 27 1
11 18 19 2
12 18 21 1
13 9 19 1
14 19 20 1
15 20 22 2
16 21 22 1
17 21 26 1
18 22 23 1
19 2 23 1
20 23 24 2
21 3 24 1
22 24 25 1
23 4 25 1
24 25 26 2
25 11 27 1
26 27 28 1
27 28 29 1
28 28 33 2
29 7 29 1
30 29 30 2
31 30 31 1
32 30 34 1
33 8 31 1
34 31 32 2
35 10 32 1
36 32 33 1
37 1 33 1
38 34 35 1
39 34 36 2
@<TRIPOS>SUBSTRUCTURE
1	UNK0	1	GROUP	1 ****	UNK
