# created with PyMOL 2.5.0
@<TRIPOS>MOLECULE
BDB50293153
36 39 1                 
SMALL
USER_CHARGES
@<TRIPOS>ATOM
1	 H11	-11.600	206.980	113.860	 H	1	UNK0	0.000	
2	 H04	-16.050	207.960	111.130	 H	1	UNK0	0.000	
3	 H05	-18.540	207.900	111.410	 H	1	UNK0	0.000	
4	 H06	-19.630	205.980	112.520	 H	1	UNK0	0.000	
5	 H02	-12.550	207.900	108.400	 H	1	UNK0	0.000	
6	 H01	-14.490	206.700	109.380	 H	1	UNK0	0.000	
7	 H08	-7.640	207.950	112.500	 H	1	UNK0	0.000	
8	 H09	-8.960	209.070	116.440	 H	1	UNK0	0.000	
9	 H03	-13.580	203.400	112.820	 H	1	UNK0	0.000	
10	 H10	-11.150	208.060	116.010	 H	1	UNK0	0.000	
11	 H07	-9.210	207.070	111.040	 H	1	UNK0	0.000	
12	  C1	-13.330	206.090	111.110	C.2	1	UNK0	0.000	
13	  C2	-13.540	206.730	109.890	C.2	1	UNK0	0.000	
14	  C3	-12.440	207.350	109.320	C.2	1	UNK0	0.000	
15	  N1	-11.200	207.330	109.900	N.2	1	UNK0	0.000	
16	  C4	-11.110	206.720	111.100	C.2	1	UNK0	0.000	
17	  N2	-12.120	206.040	111.700	N.2	1	UNK0	0.000	
18	  N3	-15.750	203.710	113.030	N.2	1	UNK0	0.000	
19	  C5	-14.410	204.060	112.610	C.2	1	UNK0	0.000	
20	  C6	-14.410	205.460	111.820	C.2	1	UNK0	0.000	
21	  N4	-16.590	204.900	112.620	N.pl3	1	UNK0	0.000	
22	  C7	-15.830	205.940	111.840	C.2	1	UNK0	0.000	
23	  C8	-16.570	207.090	111.500	C.2	1	UNK0	0.000	
24	  C9	-17.900	207.070	111.680	C.2	1	UNK0	0.000	
25	 C10	-18.540	205.930	112.410	C.2	1	UNK0	0.000	
26	  N5	-17.900	204.940	112.960	N.2	1	UNK0	0.000	
27	  N6	-9.880	206.800	111.740	N.pl3	1	UNK0	0.000	
28	 C11	-9.660	207.420	112.990	C.2	1	UNK0	0.000	
29	 C12	-8.410	207.980	113.270	C.2	1	UNK0	0.000	
30	 C13	-8.130	208.620	114.500	C.2	1	UNK0	0.000	
31	 C14	-9.150	208.630	115.470	C.2	1	UNK0	0.000	
32	 C15	-10.380	208.040	115.240	C.2	1	UNK0	0.000	
33	 C16	-10.630	207.440	114.010	C.2	1	UNK0	0.000	
34	  N7	-6.870	209.180	114.800	N.pl3	1	UNK0	0.000	
35	  O1	-6.800	210.460	115.580	O.2	1	UNK0	0.000	
36	  O2	-5.720	208.990	113.880	O.2	1	UNK0	0.000	
@<TRIPOS>BOND
1 12 13 1
2 12 17 2
3 12 20 1
4 6 13 1
5 13 14 2
6 5 14 1
7 14 15 1
8 15 16 2
9 16 17 1
10 16 27 1
11 18 19 2
12 18 21 1
13 9 19 1
14 19 20 1
15 20 22 2
16 21 22 1
17 21 26 1
18 22 23 1
19 2 23 1
20 23 24 2
21 3 24 1
22 24 25 1
23 4 25 1
24 25 26 2
25 11 27 1
26 27 28 1
27 28 29 1
28 28 33 2
29 7 29 1
30 29 30 2
31 30 31 1
32 30 34 1
33 8 31 1
34 31 32 2
35 10 32 1
36 32 33 1
37 1 33 1
38 34 35 1
39 34 36 2
@<TRIPOS>SUBSTRUCTURE
1	UNK0	1	GROUP	1 ****	UNK
