step2_200_2000_5.0_40251.xyz.gro
  PyMOL2.5          3D                             0

 25 28  0  0  0  0  0  0  0  0999 V2000
  -12.7135  207.3646  111.4863 C   0  0  0  0  0  0  0  0  0  0  0  0
  -13.0132  208.4947  110.7064 C   0  0  0  0  0  0  0  0  0  0  0  0
  -12.1130  209.5545  110.7864 C   0  0  0  0  0  0  0  0  0  0  0  0
  -11.0030  209.5141  111.5564 N   0  0  0  0  0  0  0  0  0  0  0  0
  -10.8232  208.3841  112.2863 C   0  0  0  0  0  0  0  0  0  0  0  0
  -11.6035  207.2943  112.2563 N   0  0  0  0  0  0  0  0  0  0  0  0
  -14.5343  204.0150  112.3163 N   0  0  0  0  0  0  0  0  0  0  0  0
  -13.3141  204.7247  112.0062 C   0  0  0  0  0  0  0  0  0  0  0  0
  -13.6338  206.2348  111.5363 C   0  0  0  0  0  0  0  0  0  0  0  0
  -15.6340  205.0453  112.1163 N   0  0  0  0  0  0  0  0  0  0  0  0
  -15.1137  206.3852  111.6064 C   0  0  0  0  0  0  0  0  0  0  0  0
  -16.1035  207.3554  111.3264 C   0  0  0  0  0  0  0  0  0  0  0  0
  -17.3836  206.9657  111.3965 C   0  0  0  0  0  0  0  0  0  0  0  0
  -17.7439  205.6958  112.1064 C   0  0  0  0  0  0  0  0  0  0  0  0
  -16.9341  204.6956  112.3363 N   0  0  0  0  0  0  0  0  0  0  0  0
   -9.8932  208.2938  114.5363 C   0  0  0  0  0  0  0  0  0  0  0  0
   -8.8033  207.8135  115.2562 C   0  0  0  0  0  0  0  0  0  0  0  0
   -8.7832  207.7834  116.6662 C   0  0  0  0  0  0  0  0  0  0  0  0
   -9.9431  208.2237  117.3363 C   0  0  0  0  0  0  0  0  0  0  0  0
  -11.0430  208.7040  116.6263 C   0  0  0  0  0  0  0  0  0  0  0  0
  -11.0130  208.7540  115.2363 C   0  0  0  0  0  0  0  0  0  0  0  0
   -9.7632  208.4738  113.1463 N   0  0  0  0  0  0  0  0  0  0  0  0
   -7.6233  207.3531  117.3662 N   0  0  0  0  0  0  0  0  0  0  0  0
   -7.5032  207.8030  118.8062 O   0  0  0  0  0  0  0  0  0  0  0  0
   -6.3233  207.5528  116.6261 O   0  0  0  0  0  0  0  0  0  0  0  0
  1  2  1  0  0  0  0
  1  6  1  0  0  0  0
  1  9  1  0  0  0  0
  2  3  1  0  0  0  0
  3  4  1  0  0  0  0
  4  5  1  0  0  0  0
  5  6  1  0  0  0  0
  5 22  1  0  0  0  0
  7  8  1  0  0  0  0
  7 10  1  0  0  0  0
  8  9  1  0  0  0  0
  9 11  1  0  0  0  0
 10 11  1  0  0  0  0
 10 15  1  0  0  0  0
 11 12  1  0  0  0  0
 12 13  1  0  0  0  0
 13 14  1  0  0  0  0
 14 15  1  0  0  0  0
 16 17  1  0  0  0  0
 16 21  1  0  0  0  0
 16 22  1  0  0  0  0
 17 18  1  0  0  0  0
 18 19  1  0  0  0  0
 18 23  1  0  0  0  0
 19 20  1  0  0  0  0
 20 21  1  0  0  0  0
 23 24  1  0  0  0  0
 23 25  1  0  0  0  0
M  END
$$$$
