# created with PyMOL 2.5.0
@<TRIPOS>MOLECULE
BDB50293153
36 39 1                 
SMALL
USER_CHARGES
@<TRIPOS>ATOM
1	 H11	-10.020	205.470	114.290	 H	1	UNK0	0.000	
2	 H04	-14.470	206.750	112.890	 H	1	UNK0	0.000	
3	 H05	-16.160	206.200	114.650	 H	1	UNK0	0.000	
4	 H06	-16.240	203.940	115.610	 H	1	UNK0	0.000	
5	 H02	-11.930	208.390	109.520	 H	1	UNK0	0.000	
6	 H01	-13.360	206.380	109.980	 H	1	UNK0	0.000	
7	 H08	-7.670	209.050	114.070	 H	1	UNK0	0.000	
8	 H09	-8.580	207.230	117.870	 H	1	UNK0	0.000	
9	 H03	-11.580	202.340	111.340	 H	1	UNK0	0.000	
10	 H10	-9.820	205.460	116.720	 H	1	UNK0	0.000	
11	 H07	-8.810	208.290	112.200	 H	1	UNK0	0.000	
12	  C1	-11.900	205.590	111.390	C.2	1	UNK0	0.000	
13	  C2	-12.410	206.520	110.480	C.2	1	UNK0	0.000	
14	  C3	-11.620	207.630	110.230	C.2	1	UNK0	0.000	
15	  N1	-10.420	207.830	110.850	N.2	1	UNK0	0.000	
16	  C4	-10.060	206.930	111.790	C.2	1	UNK0	0.000	
17	  N2	-10.720	205.770	112.030	N.2	1	UNK0	0.000	
18	  N3	-13.340	202.190	112.640	N.2	1	UNK0	0.000	
19	  C5	-12.390	202.890	111.800	C.2	1	UNK0	0.000	
20	  C6	-12.730	204.480	111.770	C.2	1	UNK0	0.000	
21	  N4	-14.250	203.290	113.190	N.pl3	1	UNK0	0.000	
22	  C7	-13.910	204.660	112.670	C.2	1	UNK0	0.000	
23	  C8	-14.680	205.730	113.180	C.2	1	UNK0	0.000	
24	  C9	-15.600	205.440	114.130	C.2	1	UNK0	0.000	
25	 C10	-15.740	204.030	114.630	C.2	1	UNK0	0.000	
26	  N5	-15.180	202.960	114.120	N.2	1	UNK0	0.000	
27	  N6	-9.010	207.360	112.580	N.pl3	1	UNK0	0.000	
28	 C11	-8.920	207.310	113.990	C.2	1	UNK0	0.000	
29	 C12	-8.160	208.280	114.660	C.2	1	UNK0	0.000	
30	 C13	-8.010	208.290	116.070	C.2	1	UNK0	0.000	
31	 C14	-8.660	207.270	116.790	C.2	1	UNK0	0.000	
32	 C15	-9.370	206.260	116.150	C.2	1	UNK0	0.000	
33	 C16	-9.480	206.280	114.760	C.2	1	UNK0	0.000	
34	  N7	-7.240	209.270	116.740	N.pl3	1	UNK0	0.000	
35	  O1	-6.110	209.870	115.940	O.2	1	UNK0	0.000	
36	  O2	-6.790	208.940	118.160	O.2	1	UNK0	0.000	
@<TRIPOS>BOND
1 12 13 1
2 12 17 2
3 12 20 1
4 6 13 1
5 13 14 2
6 5 14 1
7 14 15 1
8 15 16 2
9 16 17 1
10 16 27 1
11 18 19 2
12 18 21 1
13 9 19 1
14 19 20 1
15 20 22 2
16 21 22 1
17 21 26 1
18 22 23 1
19 2 23 1
20 23 24 2
21 3 24 1
22 24 25 1
23 4 25 1
24 25 26 2
25 11 27 1
26 27 28 1
27 28 29 1
28 28 33 2
29 7 29 1
30 29 30 2
31 30 31 1
32 30 34 1
33 8 31 1
34 31 32 2
35 10 32 1
36 32 33 1
37 1 33 1
38 34 35 1
39 34 36 2
@<TRIPOS>SUBSTRUCTURE
1	UNK0	1	GROUP	1 ****	UNK
