# created with PyMOL 2.5.0
@<TRIPOS>MOLECULE
BDB50293153
36 39 1                 
SMALL
USER_CHARGES
@<TRIPOS>ATOM
1	 H11	-9.740	206.190	114.330	 H	1	UNK0	0.000	
2	 H04	-15.790	207.380	111.150	 H	1	UNK0	0.000	
3	 H05	-17.780	205.940	110.900	 H	1	UNK0	0.000	
4	 H06	-18.010	203.890	112.220	 H	1	UNK0	0.000	
5	 H02	-12.420	209.630	110.020	 H	1	UNK0	0.000	
6	 H01	-14.220	208.610	111.450	 H	1	UNK0	0.000	
7	 H08	-7.430	209.750	113.740	 H	1	UNK0	0.000	
8	 H09	-7.330	207.640	117.510	 H	1	UNK0	0.000	
9	 H03	-12.510	205.800	115.310	 H	1	UNK0	0.000	
10	 H10	-8.890	205.980	116.620	 H	1	UNK0	0.000	
11	 H07	-8.800	208.910	112.010	 H	1	UNK0	0.000	
12	  C1	-12.780	207.580	112.700	C.2	1	UNK0	0.000	
13	  C2	-13.180	208.420	111.650	C.2	1	UNK0	0.000	
14	  C3	-12.180	208.990	110.890	C.2	1	UNK0	0.000	
15	  N1	-10.870	208.820	111.150	N.2	1	UNK0	0.000	
16	  C4	-10.550	208.090	112.250	C.2	1	UNK0	0.000	
17	  N2	-11.470	207.430	113.000	N.2	1	UNK0	0.000	
18	  N3	-14.380	204.750	114.800	N.2	1	UNK0	0.000	
19	  C5	-13.380	205.790	114.670	C.2	1	UNK0	0.000	
20	  C6	-13.740	206.770	113.430	C.2	1	UNK0	0.000	
21	  N4	-15.390	205.040	113.700	N.pl3	1	UNK0	0.000	
22	  C7	-15.040	206.260	112.880	C.2	1	UNK0	0.000	
23	  C8	-15.980	206.590	111.850	C.2	1	UNK0	0.000	
24	  C9	-17.070	205.810	111.720	C.2	1	UNK0	0.000	
25	 C10	-17.210	204.560	112.530	C.2	1	UNK0	0.000	
26	  N5	-16.460	204.220	113.550	N.2	1	UNK0	0.000	
27	  N6	-9.210	208.180	112.600	N.pl3	1	UNK0	0.000	
28	 C11	-8.650	207.990	113.880	C.2	1	UNK0	0.000	
29	 C12	-7.740	208.930	114.380	C.2	1	UNK0	0.000	
30	 C13	-7.260	208.840	115.700	C.2	1	UNK0	0.000	
31	 C14	-7.690	207.760	116.500	C.2	1	UNK0	0.000	
32	 C15	-8.570	206.810	116.000	C.2	1	UNK0	0.000	
33	 C16	-9.050	206.940	114.700	C.2	1	UNK0	0.000	
34	  N7	-6.400	209.830	116.270	N.pl3	1	UNK0	0.000	
35	  O1	-5.880	209.640	117.680	O.2	1	UNK0	0.000	
36	  O2	-5.590	210.750	115.400	O.2	1	UNK0	0.000	
@<TRIPOS>BOND
1 12 13 1
2 12 17 2
3 12 20 1
4 6 13 1
5 13 14 2
6 5 14 1
7 14 15 1
8 15 16 2
9 16 17 1
10 16 27 1
11 18 19 2
12 18 21 1
13 9 19 1
14 19 20 1
15 20 22 2
16 21 22 1
17 21 26 1
18 22 23 1
19 2 23 1
20 23 24 2
21 3 24 1
22 24 25 1
23 4 25 1
24 25 26 2
25 11 27 1
26 27 28 1
27 28 29 1
28 28 33 2
29 7 29 1
30 29 30 2
31 30 31 1
32 30 34 1
33 8 31 1
34 31 32 2
35 10 32 1
36 32 33 1
37 1 33 1
38 34 35 1
39 34 36 2
@<TRIPOS>SUBSTRUCTURE
1	UNK0	1	GROUP	1 ****	UNK
