# created with PyMOL 2.5.0
@<TRIPOS>MOLECULE
BDB50293153
36 39 1                 
SMALL
USER_CHARGES
@<TRIPOS>ATOM
1	 H11	-10.890	206.360	114.630	 H	1	UNK0	0.000	
2	 H04	-15.130	208.280	111.380	 H	1	UNK0	0.000	
3	 H05	-17.570	208.060	111.830	 H	1	UNK0	0.000	
4	 H06	-18.460	206.100	113.030	 H	1	UNK0	0.000	
5	 H02	-11.460	209.350	109.600	 H	1	UNK0	0.000	
6	 H01	-13.320	207.710	109.890	 H	1	UNK0	0.000	
7	 H08	-7.330	208.760	114.520	 H	1	UNK0	0.000	
8	 H09	-8.820	207.200	118.250	 H	1	UNK0	0.000	
9	 H03	-12.390	203.590	112.320	 H	1	UNK0	0.000	
10	 H10	-10.680	206.130	117.050	 H	1	UNK0	0.000	
11	 H07	-8.760	208.710	112.700	 H	1	UNK0	0.000	
12	  C1	-12.290	206.710	111.520	C.2	1	UNK0	0.000	
13	  C2	-12.440	207.690	110.520	C.2	1	UNK0	0.000	
14	  C3	-11.400	208.560	110.360	C.2	1	UNK0	0.000	
15	  N1	-10.280	208.560	111.130	N.2	1	UNK0	0.000	
16	  C4	-10.240	207.610	112.120	C.2	1	UNK0	0.000	
17	  N2	-11.160	206.650	112.290	N.2	1	UNK0	0.000	
18	  N3	-14.560	203.780	112.680	N.2	1	UNK0	0.000	
19	  C5	-13.240	204.250	112.260	C.2	1	UNK0	0.000	
20	  C6	-13.320	205.800	111.770	C.2	1	UNK0	0.000	
21	  N4	-15.470	205.000	112.510	N.pl3	1	UNK0	0.000	
22	  C7	-14.760	206.210	111.950	C.2	1	UNK0	0.000	
23	  C8	-15.550	207.360	111.780	C.2	1	UNK0	0.000	
24	  C9	-16.870	207.260	112.040	C.2	1	UNK0	0.000	
25	 C10	-17.400	206.040	112.720	C.2	1	UNK0	0.000	
26	  N5	-16.770	204.910	112.880	N.2	1	UNK0	0.000	
27	  N6	-9.170	207.810	112.990	N.pl3	1	UNK0	0.000	
28	 C11	-9.130	207.620	114.390	C.2	1	UNK0	0.000	
29	 C12	-8.050	208.170	115.080	C.2	1	UNK0	0.000	
30	 C13	-7.900	208.030	116.470	C.2	1	UNK0	0.000	
31	 C14	-8.870	207.290	117.170	C.2	1	UNK0	0.000	
32	 C15	-9.930	206.680	116.490	C.2	1	UNK0	0.000	
33	 C16	-10.040	206.840	115.120	C.2	1	UNK0	0.000	
34	  N7	-6.810	208.660	117.160	N.pl3	1	UNK0	0.000	
35	  O1	-5.540	208.770	116.360	O.2	1	UNK0	0.000	
36	  O2	-6.480	208.150	118.550	O.2	1	UNK0	0.000	
@<TRIPOS>BOND
1 12 13 1
2 12 17 2
3 12 20 1
4 6 13 1
5 13 14 2
6 5 14 1
7 14 15 1
8 15 16 2
9 16 17 1
10 16 27 1
11 18 19 2
12 18 21 1
13 9 19 1
14 19 20 1
15 20 22 2
16 21 22 1
17 21 26 1
18 22 23 1
19 2 23 1
20 23 24 2
21 3 24 1
22 24 25 1
23 4 25 1
24 25 26 2
25 11 27 1
26 27 28 1
27 28 29 1
28 28 33 2
29 7 29 1
30 29 30 2
31 30 31 1
32 30 34 1
33 8 31 1
34 31 32 2
35 10 32 1
36 32 33 1
37 1 33 1
38 34 35 1
39 34 36 2
@<TRIPOS>SUBSTRUCTURE
1	UNK0	1	GROUP	1 ****	UNK
