# created with PyMOL 2.5.0
@<TRIPOS>MOLECULE
BDB50293153
36 39 1                 
SMALL
USER_CHARGES
@<TRIPOS>ATOM
1	 H11	-11.860	207.190	114.670	 H	1	UNK0	0.000	
2	 H04	-15.740	207.760	111.600	 H	1	UNK0	0.000	
3	 H05	-17.990	207.430	112.660	 H	1	UNK0	0.000	
4	 H06	-18.520	205.400	113.910	 H	1	UNK0	0.000	
5	 H02	-11.160	207.920	108.770	 H	1	UNK0	0.000	
6	 H01	-13.270	206.610	109.170	 H	1	UNK0	0.000	
7	 H08	-7.650	207.920	114.310	 H	1	UNK0	0.000	
8	 H09	-9.410	207.160	118.160	 H	1	UNK0	0.000	
9	 H03	-12.750	203.170	111.650	 H	1	UNK0	0.000	
10	 H10	-11.630	206.950	117.100	 H	1	UNK0	0.000	
11	 H07	-9.120	208.190	112.440	 H	1	UNK0	0.000	
12	  C1	-12.770	206.340	111.270	C.2	1	UNK0	0.000	
13	  C2	-12.570	206.810	109.980	C.2	1	UNK0	0.000	
14	  C3	-11.410	207.540	109.760	C.2	1	UNK0	0.000	
15	  N1	-10.510	207.790	110.740	N.2	1	UNK0	0.000	
16	  C4	-10.810	207.340	111.980	C.2	1	UNK0	0.000	
17	  N2	-11.900	206.600	112.280	N.2	1	UNK0	0.000	
18	  N3	-14.680	203.330	112.700	N.2	1	UNK0	0.000	
19	  C5	-13.590	203.810	111.880	C.2	1	UNK0	0.000	
20	  C6	-13.820	205.380	111.510	C.2	1	UNK0	0.000	
21	  N4	-15.610	204.510	112.860	N.pl3	1	UNK0	0.000	
22	  C7	-15.120	205.760	112.130	C.2	1	UNK0	0.000	
23	  C8	-15.990	206.860	112.170	C.2	1	UNK0	0.000	
24	  C9	-17.190	206.700	112.750	C.2	1	UNK0	0.000	
25	 C10	-17.520	205.420	113.460	C.2	1	UNK0	0.000	
26	  N5	-16.740	204.390	113.600	N.2	1	UNK0	0.000	
27	  N6	-9.820	207.630	112.900	N.pl3	1	UNK0	0.000	
28	 C11	-9.770	207.580	114.310	C.2	1	UNK0	0.000	
29	 C12	-8.520	207.700	114.930	C.2	1	UNK0	0.000	
30	 C13	-8.350	207.540	116.320	C.2	1	UNK0	0.000	
31	 C14	-9.500	207.270	117.090	C.2	1	UNK0	0.000	
32	 C15	-10.750	207.150	116.490	C.2	1	UNK0	0.000	
33	 C16	-10.880	207.290	115.110	C.2	1	UNK0	0.000	
34	  N7	-7.070	207.670	116.930	N.pl3	1	UNK0	0.000	
35	  O1	-6.860	206.960	118.250	O.2	1	UNK0	0.000	
36	  O2	-5.840	207.520	116.050	O.2	1	UNK0	0.000	
@<TRIPOS>BOND
1 12 13 1
2 12 17 2
3 12 20 1
4 6 13 1
5 13 14 2
6 5 14 1
7 14 15 1
8 15 16 2
9 16 17 1
10 16 27 1
11 18 19 2
12 18 21 1
13 9 19 1
14 19 20 1
15 20 22 2
16 21 22 1
17 21 26 1
18 22 23 1
19 2 23 1
20 23 24 2
21 3 24 1
22 24 25 1
23 4 25 1
24 25 26 2
25 11 27 1
26 27 28 1
27 28 29 1
28 28 33 2
29 7 29 1
30 29 30 2
31 30 31 1
32 30 34 1
33 8 31 1
34 31 32 2
35 10 32 1
36 32 33 1
37 1 33 1
38 34 35 1
39 34 36 2
@<TRIPOS>SUBSTRUCTURE
1	UNK0	1	GROUP	1 ****	UNK
