# created with PyMOL 2.5.0
@<TRIPOS>MOLECULE
BDB50293153
36 39 1                 
SMALL
USER_CHARGES
@<TRIPOS>ATOM
1	 H11	-10.590	207.000	113.970	 H	1	UNK0	0.000	
2	 H04	-15.320	208.200	110.750	 H	1	UNK0	0.000	
3	 H05	-17.770	207.740	111.030	 H	1	UNK0	0.000	
4	 H06	-18.570	205.730	112.170	 H	1	UNK0	0.000	
5	 H02	-11.430	208.880	108.590	 H	1	UNK0	0.000	
6	 H01	-13.440	207.660	109.510	 H	1	UNK0	0.000	
7	 H08	-6.480	207.650	112.950	 H	1	UNK0	0.000	
8	 H09	-7.670	207.030	117.050	 H	1	UNK0	0.000	
9	 H03	-12.190	204.240	112.950	 H	1	UNK0	0.000	
10	 H10	-10.010	206.760	116.320	 H	1	UNK0	0.000	
11	 H07	-8.280	208.270	111.460	 H	1	UNK0	0.000	
12	  C1	-12.250	206.820	111.120	C.2	1	UNK0	0.000	
13	  C2	-12.470	207.600	109.990	C.2	1	UNK0	0.000	
14	  C3	-11.360	208.260	109.480	C.2	1	UNK0	0.000	
15	  N1	-10.130	208.190	110.070	N.2	1	UNK0	0.000	
16	  C4	-10.030	207.440	111.190	C.2	1	UNK0	0.000	
17	  N2	-11.030	206.680	111.670	N.2	1	UNK0	0.000	
18	  N3	-14.390	204.170	112.980	N.2	1	UNK0	0.000	
19	  C5	-13.110	204.730	112.650	C.2	1	UNK0	0.000	
20	  C6	-13.300	206.090	111.790	C.2	1	UNK0	0.000	
21	  N4	-15.410	205.130	112.390	N.pl3	1	UNK0	0.000	
22	  C7	-14.780	206.310	111.680	C.2	1	UNK0	0.000	
23	  C8	-15.690	207.270	111.180	C.2	1	UNK0	0.000	
24	  C9	-17.010	207.040	111.330	C.2	1	UNK0	0.000	
25	 C10	-17.480	205.800	112.040	C.2	1	UNK0	0.000	
26	  N5	-16.730	204.830	112.480	N.2	1	UNK0	0.000	
27	  N6	-8.830	207.520	111.880	N.pl3	1	UNK0	0.000	
28	 C11	-8.570	207.360	113.270	C.2	1	UNK0	0.000	
29	 C12	-7.250	207.440	113.700	C.2	1	UNK0	0.000	
30	 C13	-6.890	207.360	115.050	C.2	1	UNK0	0.000	
31	 C14	-7.900	207.110	115.990	C.2	1	UNK0	0.000	
32	 C15	-9.230	206.960	115.590	C.2	1	UNK0	0.000	
33	 C16	-9.550	207.080	114.240	C.2	1	UNK0	0.000	
34	  N7	-5.550	207.590	115.470	N.pl3	1	UNK0	0.000	
35	  O1	-5.170	207.520	116.940	O.2	1	UNK0	0.000	
36	  O2	-4.410	207.410	114.500	O.2	1	UNK0	0.000	
@<TRIPOS>BOND
1 12 13 1
2 12 17 2
3 12 20 1
4 6 13 1
5 13 14 2
6 5 14 1
7 14 15 1
8 15 16 2
9 16 17 1
10 16 27 1
11 18 19 2
12 18 21 1
13 9 19 1
14 19 20 1
15 20 22 2
16 21 22 1
17 21 26 1
18 22 23 1
19 2 23 1
20 23 24 2
21 3 24 1
22 24 25 1
23 4 25 1
24 25 26 2
25 11 27 1
26 27 28 1
27 28 29 1
28 28 33 2
29 7 29 1
30 29 30 2
31 30 31 1
32 30 34 1
33 8 31 1
34 31 32 2
35 10 32 1
36 32 33 1
37 1 33 1
38 34 35 1
39 34 36 2
@<TRIPOS>SUBSTRUCTURE
1	UNK0	1	GROUP	1 ****	UNK
