@<TRIPOS>MOLECULE
BDB50293153
 25 28 0 0 0
SMALL
USER_CHARGES

@<TRIPOS>ATOM
      1 C1        -11.0900  207.4700  114.2900 C.2     1  UNK01       0.0000
      2 C2        -10.6100  207.7800  113.0100 C.2     1  UNK01       0.0000
      3 C3         -9.3600  208.3900  112.9300 C.2     1  UNK01       0.0000
      4 N1         -8.6100  208.6400  114.0200 N.2     1  UNK01       0.0000
      5 C4         -9.1400  208.3100  115.2200 C.cat   1  UNK01       0.0000
      6 N2        -10.3500  207.7300  115.4000 N.2     1  UNK01       0.0000
      7 N3        -13.8300  204.7300  113.9400 N.2     1  UNK01       0.0000
      8 C5        -12.8700  205.6100  113.3100 C.2     1  UNK01       0.0000
      9 C6        -12.3200  206.7000  114.3800 C.2     1  UNK01       0.0000
     10 N4        -13.9600  205.2400  115.3700 N.pl3   1  UNK01       0.0000
     11 C7        -13.0700  206.4300  115.6500 C.2     1  UNK01       0.0000
     12 C8        -13.2100  207.0000  116.9400 C.2     1  UNK01       0.0000
     13 C9        -14.1100  206.4500  117.7800 C.2     1  UNK01       0.0000
     14 C10       -14.9200  205.2500  117.3500 C.2     1  UNK01       0.0000
     15 N5        -14.8500  204.6500  116.2000 N.2     1  UNK01       0.0000
     16 N6         -8.2600  208.5900  116.2400 N.pl3   1  UNK01       0.0000
     17 C11        -8.4300  208.7700  117.6300 C.2     1  UNK01       0.0000
     18 C12        -7.3600  209.3100  118.3300 C.2     1  UNK01       0.0000
     19 C13        -7.4200  209.5400  119.7200 C.2     1  UNK01       0.0000
     20 C14        -8.5900  209.1600  120.4000 C.2     1  UNK01       0.0000
     21 C15        -9.6400  208.5500  119.7200 C.2     1  UNK01       0.0000
     22 C16        -9.5500  208.3400  118.3400 C.2     1  UNK01       0.0000
     23 N7         -6.3300  210.1700  120.3700 N.pl3   1  UNK01       0.0000
     24 O1         -6.3400  210.4400  121.8700 O.2     1  UNK01       0.0000
     25 O2         -4.9500  209.9900  119.8100 O.2     1  UNK01       0.0000
@<TRIPOS>UNITY_ATOM_ATTR
24 1
charge -1
@<TRIPOS>BOND
     1     1     2    1
     2     1     6    2
     3     1     9    1
     4     2     3    2
     5     3     4    1
     6     4     5    2
     7     5     6    1
     8     5    16    1
     9     7     8    2
    10     7    10    1
    11     8     9    1
    12     9    11    2
    13    10    11    1
    14    10    15    1
    15    11    12    1
    16    12    13    2
    17    13    14    1
    18    14    15    2
    19    16    17    1
    20    17    18    1
    21    17    22    2
    22    18    19    2
    23    19    20    1
    24    19    23    1
    25    20    21    2
    26    21    22    1
    27    23    24    1
    28    23    25    2
