# created with PyMOL 2.5.0
@<TRIPOS>MOLECULE
comp
28 30 1                 
SMALL
USER_CHARGES
@<TRIPOS>ATOM
1	  C1	-12.712	203.176	118.422	C.3	1	LIG1	0.000	
2	  C2	-12.989	203.802	117.120	C.3	1	LIG1	0.000	
3	  N1	-11.732	204.386	116.416	N.3	1	LIG1	0.000	
4	  C3	-10.552	204.172	117.153	C.3	1	LIG1	0.000	
5	  C5	-10.915	203.227	123.704	C.3	1	LIG1	0.000	
6	  C6	-11.345	201.903	123.579	C.3	1	LIG1	0.000	
7	  C7	-12.147	201.526	122.503	C.3	1	LIG1	0.000	
8	  C8	-12.538	202.443	121.513	C.3	1	LIG1	0.000	
9	  C9	-12.140	203.799	121.683	C.3	1	LIG1	0.000	
10	 C10	-11.328	204.178	122.758	C.3	1	LIG1	0.000	
11	 C11	-6.479	206.991	118.549	C.3	1	LIG1	0.000	
12	 C12	-6.748	207.125	117.175	C.3	1	LIG1	0.000	
13	 C13	-7.710	206.306	116.594	C.3	1	LIG1	0.000	
14	 C14	-8.406	205.346	117.336	C.3	1	LIG1	0.000	
15	 C15	-8.060	205.156	118.678	C.3	1	LIG1	0.000	
16	 C16	-7.105	205.981	119.300	C.3	1	LIG1	0.000	
17	  S1	-10.852	203.231	118.760	S.3	1	LIG1	0.000	
18	  N2	-14.137	203.943	116.476	N.3	1	LIG1	0.000	
19	  C4	-13.679	202.451	119.218	C.3	1	LIG1	0.000	
20	  O1	-14.704	201.989	118.745	O.3	1	LIG1	0.000	
21	  N3	-13.371	201.967	120.465	N.3	1	LIG1	0.000	
22	  F1	-12.576	204.786	120.883	Du	1	LIG1	0.000	
23	  F2	-12.527	200.236	122.436	Du	1	LIG1	0.000	
24	  N4	-9.380	204.594	116.649	N.3	1	LIG1	0.000	
25	  S2	-5.306	208.114	119.348	S.o2	1	LIG1	0.000	
26	  O2	-4.376	208.665	118.364	O.3	1	LIG1	0.000	
27	  N5	-6.262	209.363	119.768	N.3	1	LIG1	0.000	
28	  O3	-4.855	207.504	120.572	O.3	1	LIG1	0.000	
@<TRIPOS>BOND
1 1 2 1
2 1 17 1
3 1 19 1
4 2 3 1
5 2 18 1
6 3 4 1
7 4 17 1
8 4 24 1
9 5 6 1
10 5 10 1
11 6 7 1
12 7 8 1
13 7 23 1
14 8 9 1
15 8 21 1
16 9 10 1
17 9 22 1
18 11 12 1
19 11 16 1
20 11 25 1
21 12 13 1
22 13 14 1
23 14 15 1
24 14 24 1
25 15 16 1
26 19 20 1
27 19 21 1
28 25 26 1
29 25 27 1
30 25 28 1
@<TRIPOS>SUBSTRUCTURE
1	LIG1	1	GROUP	1 ****	LIG
