# created with PyMOL 2.5.0
@<TRIPOS>MOLECULE
comp
28 30 1                 
SMALL
USER_CHARGES
@<TRIPOS>ATOM
1	  C1	-11.675	204.687	113.963	C.3	1	LIG1	0.000	
2	  C2	-10.334	204.937	114.494	C.3	1	LIG1	0.000	
3	  N1	-10.267	206.013	115.614	N.3	1	LIG1	0.000	
4	  C3	-11.547	206.536	115.914	C.3	1	LIG1	0.000	
5	  C5	-16.410	202.624	115.742	C.3	1	LIG1	0.000	
6	  C6	-15.114	202.746	116.213	C.3	1	LIG1	0.000	
7	  C7	-14.052	202.897	115.287	C.3	1	LIG1	0.000	
8	  C8	-14.307	202.945	113.910	C.3	1	LIG1	0.000	
9	  C9	-15.621	202.710	113.472	C.3	1	LIG1	0.000	
10	 C10	-16.683	202.569	114.388	C.3	1	LIG1	0.000	
11	 C11	-14.537	206.834	120.085	C.3	1	LIG1	0.000	
12	 C12	-14.419	205.833	119.115	C.3	1	LIG1	0.000	
13	 C13	-13.514	206.009	118.057	C.3	1	LIG1	0.000	
14	 C14	-12.706	207.156	117.967	C.3	1	LIG1	0.000	
15	 C15	-12.844	208.146	118.936	C.3	1	LIG1	0.000	
16	 C16	-13.740	207.989	120.016	C.3	1	LIG1	0.000	
17	  S1	-12.903	205.882	114.767	S.3	1	LIG1	0.000	
18	  N2	-9.220	204.345	114.105	N.3	1	LIG1	0.000	
19	  C4	-12.067	203.758	112.935	C.3	1	LIG1	0.000	
20	  O1	-11.316	203.533	111.978	O.3	1	LIG1	0.000	
21	  N3	-13.294	203.182	112.868	N.3	1	LIG1	0.000	
22	  F1	-15.923	202.561	112.172	Du	1	LIG1	0.000	
23	  F2	-12.825	202.874	115.808	Du	1	LIG1	0.000	
24	  N4	-11.753	207.402	116.924	N.3	1	LIG1	0.000	
25	  S2	-15.500	206.521	121.575	S.o2	1	LIG1	0.000	
26	  O2	-15.188	207.520	122.566	O.3	1	LIG1	0.000	
27	  N5	-17.046	206.852	121.125	N.3	1	LIG1	0.000	
28	  O3	-15.507	205.110	121.870	O.3	1	LIG1	0.000	
@<TRIPOS>BOND
1 1 2 1
2 1 17 1
3 1 19 1
4 2 3 1
5 2 18 1
6 3 4 1
7 4 17 1
8 4 24 1
9 5 6 1
10 5 10 1
11 6 7 1
12 7 8 1
13 7 23 1
14 8 9 1
15 8 21 1
16 9 10 1
17 9 22 1
18 11 12 1
19 11 16 1
20 11 25 1
21 12 13 1
22 13 14 1
23 14 15 1
24 14 24 1
25 15 16 1
26 19 20 1
27 19 21 1
28 25 26 1
29 25 27 1
30 25 28 1
@<TRIPOS>SUBSTRUCTURE
1	LIG1	1	GROUP	1 ****	LIG
