# created with PyMOL 2.5.0
@<TRIPOS>MOLECULE
comp
28 30 1                 
SMALL
USER_CHARGES
@<TRIPOS>ATOM
1	  C1	-12.824	206.284	113.684	C.3	1	LIG1	0.000	
2	  C2	-11.465	206.082	113.173	C.3	1	LIG1	0.000	
3	  N1	-10.340	206.314	114.222	N.3	1	LIG1	0.000	
4	  C3	-10.871	206.666	115.484	C.3	1	LIG1	0.000	
5	  C5	-19.167	205.657	112.299	C.3	1	LIG1	0.000	
6	  C6	-18.252	206.342	111.487	C.3	1	LIG1	0.000	
7	  C7	-16.942	206.535	111.923	C.3	1	LIG1	0.000	
8	  C8	-16.507	206.023	113.171	C.3	1	LIG1	0.000	
9	  C9	-17.471	205.388	113.990	C.3	1	LIG1	0.000	
10	 C10	-18.771	205.206	113.553	C.3	1	LIG1	0.000	
11	 C11	-9.289	203.346	118.891	C.3	1	LIG1	0.000	
12	 C12	-8.368	204.405	118.866	C.3	1	LIG1	0.000	
13	 C13	-8.666	205.532	118.084	C.3	1	LIG1	0.000	
14	 C14	-9.836	205.610	117.336	C.3	1	LIG1	0.000	
15	 C15	-10.766	204.555	117.431	C.3	1	LIG1	0.000	
16	 C16	-10.497	203.418	118.204	C.3	1	LIG1	0.000	
17	  S1	-12.752	206.770	115.503	S.3	1	LIG1	0.000	
18	  N2	-11.073	205.692	111.966	N.3	1	LIG1	0.000	
19	  C4	-14.033	206.160	112.920	C.3	1	LIG1	0.000	
20	  O1	-14.031	205.898	111.725	O.3	1	LIG1	0.000	
21	  N3	-15.184	206.151	113.681	N.3	1	LIG1	0.000	
22	  F1	-17.137	204.913	115.198	Du	1	LIG1	0.000	
23	  F2	-16.177	207.353	111.176	Du	1	LIG1	0.000	
24	  N4	-10.104	206.759	116.582	N.3	1	LIG1	0.000	
25	  S2	-9.010	201.900	119.986	S.o2	1	LIG1	0.000	
26	  O2	-7.880	202.139	120.834	O.3	1	LIG1	0.000	
27	  N5	-8.537	200.769	118.929	N.3	1	LIG1	0.000	
28	  O3	-10.295	201.429	120.461	O.3	1	LIG1	0.000	
@<TRIPOS>BOND
1 1 2 1
2 1 17 1
3 1 19 1
4 2 3 1
5 2 18 1
6 3 4 1
7 4 17 1
8 4 24 1
9 5 6 1
10 5 10 1
11 6 7 1
12 7 8 1
13 7 23 1
14 8 9 1
15 8 21 1
16 9 10 1
17 9 22 1
18 11 12 1
19 11 16 1
20 11 25 1
21 12 13 1
22 13 14 1
23 14 15 1
24 14 24 1
25 15 16 1
26 19 20 1
27 19 21 1
28 25 26 1
29 25 27 1
30 25 28 1
@<TRIPOS>SUBSTRUCTURE
1	LIG1	1	GROUP	1 ****	LIG
