# created with PyMOL 2.5.0
@<TRIPOS>MOLECULE
comp
28 30 1                 
SMALL
USER_CHARGES
@<TRIPOS>ATOM
1	  C1	-14.906	205.541	121.293	C.3	1	LIG1	0.000	
2	  C2	-15.521	206.833	120.965	C.3	1	LIG1	0.000	
3	  N1	-15.005	207.466	119.639	N.3	1	LIG1	0.000	
4	  C3	-14.063	206.628	118.999	C.3	1	LIG1	0.000	
5	  C5	-10.109	203.809	123.306	C.3	1	LIG1	0.000	
6	  C6	-10.846	202.624	123.416	C.3	1	LIG1	0.000	
7	  C7	-12.238	202.662	123.266	C.3	1	LIG1	0.000	
8	  C8	-12.929	203.850	122.995	C.3	1	LIG1	0.000	
9	  C9	-12.161	205.045	122.945	C.3	1	LIG1	0.000	
10	 C10	-10.769	205.007	123.095	C.3	1	LIG1	0.000	
11	 C11	-15.746	206.646	114.328	C.3	1	LIG1	0.000	
12	 C12	-14.788	207.663	114.472	C.3	1	LIG1	0.000	
13	 C13	-14.003	207.687	115.618	C.3	1	LIG1	0.000	
14	 C14	-14.184	206.753	116.645	C.3	1	LIG1	0.000	
15	 C15	-15.055	205.671	116.425	C.3	1	LIG1	0.000	
16	 C16	-15.845	205.607	115.266	C.3	1	LIG1	0.000	
17	  S1	-13.715	205.032	119.921	S.3	1	LIG1	0.000	
18	  N2	-16.494	207.454	121.624	N.3	1	LIG1	0.000	
19	  C4	-15.258	204.691	122.380	C.3	1	LIG1	0.000	
20	  O1	-16.413	204.577	122.764	O.3	1	LIG1	0.000	
21	  N3	-14.356	203.789	122.900	N.3	1	LIG1	0.000	
22	  F1	-12.728	206.249	122.850	Du	1	LIG1	0.000	
23	  F2	-12.885	201.479	123.363	Du	1	LIG1	0.000	
24	  N4	-13.469	206.928	117.833	N.3	1	LIG1	0.000	
25	  S2	-16.889	206.680	112.926	S.o2	1	LIG1	0.000	
26	  O2	-17.206	205.340	112.502	O.3	1	LIG1	0.000	
27	  N5	-18.237	207.241	113.595	N.3	1	LIG1	0.000	
28	  O3	-16.455	207.703	111.996	O.3	1	LIG1	0.000	
@<TRIPOS>BOND
1 1 2 1
2 1 17 1
3 1 19 1
4 2 3 1
5 2 18 1
6 3 4 1
7 4 17 1
8 4 24 1
9 5 6 1
10 5 10 1
11 6 7 1
12 7 8 1
13 7 23 1
14 8 9 1
15 8 21 1
16 9 10 1
17 9 22 1
18 11 12 1
19 11 16 1
20 11 25 1
21 12 13 1
22 13 14 1
23 14 15 1
24 14 24 1
25 15 16 1
26 19 20 1
27 19 21 1
28 25 26 1
29 25 27 1
30 25 28 1
@<TRIPOS>SUBSTRUCTURE
1	LIG1	1	GROUP	1 ****	LIG
