# created with PyMOL 2.5.0
@<TRIPOS>MOLECULE
comp
28 30 1                 
SMALL
USER_CHARGES
@<TRIPOS>ATOM
1	  C1	-15.439	203.975	118.742	C.3	1	LIG1	0.000	
2	  C2	-15.398	205.345	119.289	C.3	1	LIG1	0.000	
3	  N1	-14.299	206.249	118.681	N.3	1	LIG1	0.000	
4	  C3	-13.556	205.573	117.691	C.3	1	LIG1	0.000	
5	  C5	-20.110	200.991	122.263	C.3	1	LIG1	0.000	
6	  C6	-19.527	202.152	122.771	C.3	1	LIG1	0.000	
7	  C7	-18.548	202.812	122.033	C.3	1	LIG1	0.000	
8	  C8	-18.130	202.373	120.767	C.3	1	LIG1	0.000	
9	  C9	-18.751	201.188	120.252	C.3	1	LIG1	0.000	
10	 C10	-19.716	200.518	121.019	C.3	1	LIG1	0.000	
11	 C11	-11.543	206.225	112.973	C.3	1	LIG1	0.000	
12	 C12	-10.702	206.791	113.927	C.3	1	LIG1	0.000	
13	 C13	-11.087	206.774	115.277	C.3	1	LIG1	0.000	
14	 C14	-12.277	206.166	115.678	C.3	1	LIG1	0.000	
15	 C15	-13.108	205.592	114.712	C.3	1	LIG1	0.000	
16	 C16	-12.757	205.626	113.347	C.3	1	LIG1	0.000	
17	  S1	-14.098	203.786	117.449	S.3	1	LIG1	0.000	
18	  N2	-16.386	206.051	119.894	N.3	1	LIG1	0.000	
19	  C4	-16.366	202.916	119.002	C.3	1	LIG1	0.000	
20	  O1	-16.380	201.877	118.348	O.3	1	LIG1	0.000	
21	  N3	-17.135	203.150	120.104	N.3	1	LIG1	0.000	
22	  F1	-18.525	200.699	119.035	Du	1	LIG1	0.000	
23	  F2	-17.959	203.889	122.616	Du	1	LIG1	0.000	
24	  N4	-12.529	206.180	117.066	N.3	1	LIG1	0.000	
25	  S2	-11.007	206.138	111.229	S.o2	1	LIG1	0.000	
26	  O2	-11.730	207.093	110.438	O.3	1	LIG1	0.000	
27	  N5	-11.431	204.690	110.710	N.3	1	LIG1	0.000	
28	  O3	-9.553	206.125	111.211	O.3	1	LIG1	0.000	
@<TRIPOS>BOND
1 1 2 1
2 1 17 1
3 1 19 1
4 2 3 1
5 2 18 1
6 3 4 1
7 4 17 1
8 4 24 1
9 5 6 1
10 5 10 1
11 6 7 1
12 7 8 1
13 7 23 1
14 8 9 1
15 8 21 1
16 9 10 1
17 9 22 1
18 11 12 1
19 11 16 1
20 11 25 1
21 12 13 1
22 13 14 1
23 14 15 1
24 14 24 1
25 15 16 1
26 19 20 1
27 19 21 1
28 25 26 1
29 25 27 1
30 25 28 1
@<TRIPOS>SUBSTRUCTURE
1	LIG1	1	GROUP	1 ****	LIG
