
 OpenBabel07192212403D

 39 41  0  0  0  0  0  0  0  0999 V2000
   -9.6501  207.6722  120.7694 C   0  0  1  0  0  0  0  0  0  0  0  0
  -10.8209  207.9689  119.9983 O   0  0  0  0  0  0  0  0  0  0  0  0
   -9.7637  208.4952  122.0574 C   0  0  1  0  0  0  0  0  0  0  0  0
   -9.0323  209.7205  121.8630 O   0  0  0  0  0  0  0  0  0  0  0  0
  -11.2931  208.8358  122.1247 C   0  0  1  0  0  0  0  0  0  0  0  0
  -11.3567  210.2025  122.6101 O   0  0  0  0  0  0  0  0  0  0  0  0
  -11.6588  208.8890  120.6256 C   0  0  2  0  0  0  0  0  0  0  0  0
   -9.3643  210.1732  121.0720 H   0  0  0  0  0  0  0  0  0  0  0  0
  -10.8001  210.7695  122.0536 H   0  0  0  0  0  0  0  0  0  0  0  0
  -13.0234  208.4381  120.3688 N   0  0  0  0  0  0  0  0  0  0  0  0
  -13.9122  208.2358  121.3679 C   0  0  0  0  0  0  0  0  0  0  0  0
  -15.1233  208.2261  121.0030 N   0  0  0  0  0  0  0  0  0  0  0  0
  -15.1146  208.4340  119.7028 C   0  0  0  0  0  0  0  0  0  0  0  0
  -16.1728  208.4919  118.7901 C   0  0  0  0  0  0  0  0  0  0  0  0
  -17.4685  208.3710  119.0151 N   0  0  0  0  0  0  0  0  0  0  0  0
  -15.8039  208.7073  117.5076 N   0  0  0  0  0  0  0  0  0  0  0  0
  -14.4892  208.7951  117.1848 C   0  0  0  0  0  0  0  0  0  0  0  0
  -13.4504  208.7794  117.9816 N   0  0  0  0  0  0  0  0  0  0  0  0
  -13.8216  208.5565  119.2490 C   0  0  0  0  0  0  0  0  0  0  0  0
  -18.1059  208.4342  118.2674 H   0  0  0  0  0  0  0  0  0  0  0  0
  -17.7970  208.2177  119.9304 H   0  0  0  0  0  0  0  0  0  0  0  0
   -9.6091  206.1723  121.0887 C   0  0  0  0  0  0  0  0  0  0  0  0
  -10.4747  205.6067  120.0851 O   0  0  0  0  0  0  0  0  0  0  0  0
  -11.5808  204.5468  120.5169 P   0  0  2  0  0  0  0  0  0  0  0  0
  -12.5693  205.2694  121.4031 O   0  0  0  0  0  0  0  0  0  0  0  0
  -10.9495  203.3738  121.0622 O   0  0  0  0  0  0  0  0  0  0  0  0
  -12.1488  205.4806  122.2513 H   0  0  0  0  0  0  0  0  0  0  0  0
  -12.4963  204.3046  119.1841 O   0  0  0  0  0  0  0  0  0  0  0  0
  -12.4647  205.1947  117.8467 P   0  0  2  0  0  0  0  0  0  0  0  0
  -11.9656  204.3217  116.7635 O   0  0  0  0  0  0  0  0  0  0  0  0
  -11.7645  206.4528  118.0679 O   0  0  0  0  0  0  0  0  0  0  0  0
  -10.8096  206.2880  118.1115 H   0  0  0  0  0  0  0  0  0  0  0  0
  -14.0460  205.3706  117.7612 O   0  0  0  0  0  0  0  0  0  0  0  0
  -15.1701  204.8169  118.7207 P   0  0  0  0  0  0  0  0  0  0  0  0
  -14.9880  205.2635  120.0949 O   0  0  0  0  0  0  0  0  0  0  0  0
  -16.5124  205.0798  118.1395 O   0  0  0  0  0  0  0  0  0  0  0  0
  -14.9733  203.3129  118.7545 O   0  0  0  0  0  0  0  0  0  0  0  0
  -15.6973  204.9021  120.6490 H   0  0  0  0  0  0  0  0  0  0  0  0
  -15.0829  202.9523  117.8607 H   0  0  0  0  0  0  0  0  0  0  0  0
  1 22  1  1  0  0  0
  1  3  1  0  0  0  0
  2  1  1  0  0  0  0
  3  4  1  6  0  0  0
  4  8  1  0  0  0  0
  5  6  1  6  0  0  0
  5  3  1  0  0  0  0
  6  9  1  0  0  0  0
  7 10  1  1  0  0  0
  7  2  1  0  0  0  0
  7  5  1  0  0  0  0
 10 11  1  0  0  0  0
 12 11  2  0  0  0  0
 13 19  1  0  0  0  0
 13 12  1  0  0  0  0
 14 13  2  0  0  0  0
 15 14  1  0  0  0  0
 15 20  1  0  0  0  0
 15 21  1  0  0  0  0
 16 14  1  0  0  0  0
 16 17  2  0  0  0  0
 17 18  1  0  0  0  0
 18 19  2  0  0  0  0
 19 10  1  0  0  0  0
 23 22  1  0  0  0  0
 23 24  1  0  0  0  0
 24 26  2  1  0  0  0
 24 25  1  0  0  0  0
 24 28  1  0  0  0  0
 25 27  1  0  0  0  0
 28 29  1  0  0  0  0
 29 30  2  6  0  0  0
 29 33  1  0  0  0  0
 29 31  1  0  0  0  0
 31 32  1  0  0  0  0
 34 33  1  0  0  0  0
 34 35  1  0  0  0  0
 35 38  1  0  0  0  0
 36 34  2  0  0  0  0
 37 34  1  0  0  0  0
 37 39  1  0  0  0  0
M  END
>  <minimizedAffinity>
-0.00039

$$$$
