


 36 43  0  0  0  0  0  0  0  0999 V2000
  -16.8038  203.4293  116.3895 O   0  0  0  0  0  0  0  0  0  0  0  0
  -16.2270  202.5520  115.4347 C   0  0  0  0  0  0  0  0  0  0  0  0
  -14.6783  202.6184  115.4479 C   0  0  0  0  0  0  0  0  0  0  0  0
  -14.2169  203.6865  116.4423 C   0  0  0  0  0  0  0  0  0  0  0  0
  -14.9146  205.0375  116.1117 C   0  0  0  0  0  0  0  0  0  0  0  0
  -16.4160  204.7897  116.4798 C   0  0  0  0  0  0  0  0  0  0  0  0
  -16.5758  205.1359  117.9483 C   0  0  0  0  0  0  0  0  0  0  0  0
  -17.3416  205.6123  115.6527 N   0  0  0  0  0  0  0  0  0  0  0  0
  -17.8197  205.0761  114.4288 C   0  0  0  0  0  0  0  0  0  0  0  0
  -17.6124  203.9138  113.8030 C   0  0  0  0  0  0  0  0  0  0  0  0
  -18.1949  203.6118  112.5340 C   0  0  0  0  0  0  0  0  0  0  0  0
  -19.0584  204.6751  111.9936 C   0  0  0  0  0  0  0  0  0  0  0  0
  -19.2576  205.8101  112.6120 C   0  0  0  0  0  0  0  0  0  0  0  0
  -18.6547  206.1113  113.8559 C   0  0  0  0  0  0  0  0  0  0  0  0
  -18.6780  207.2080  114.7460 C   0  0  0  0  0  0  0  0  0  0  0  0
  -17.8484  206.9021  115.8686 C   0  0  0  0  0  0  0  0  0  0  0  0
  -17.6899  207.8117  116.8680 C   0  0  0  0  0  0  0  0  0  0  0  0
  -18.3294  209.0139  116.8100 C   0  0  0  0  0  0  0  0  0  0  0  0
  -19.1556  209.3586  115.6992 C   0  0  0  0  0  0  0  0  0  0  0  0
  -19.2947  208.4353  114.6897 C   0  0  0  0  0  0  0  0  0  0  0  0
  -20.1731  206.7277  111.7804 C   0  0  0  0  0  0  0  0  0  0  0  0
  -20.3965  205.8455  110.6534 N   0  0  0  0  0  0  0  0  0  0  0  0
  -19.7852  204.6521  110.6843 C   0  0  0  0  0  0  0  0  0  0  0  0
  -19.8265  203.7670  109.8523 O   0  0  0  0  0  0  0  0  0  0  0  0
  -17.7494  202.3409  112.1221 C   0  0  0  0  0  0  0  0  0  0  0  0
  -16.8881  201.8625  113.1516 C   0  0  0  0  0  0  0  0  0  0  0  0
  -16.2962  200.5971  113.1129 C   0  0  0  0  0  0  0  0  0  0  0  0
  -16.5507  199.8145  112.0098 C   0  0  0  0  0  0  0  0  0  0  0  0
  -17.3944  200.2830  110.9759 C   0  0  0  0  0  0  0  0  0  0  0  0
  -17.9866  201.5086  111.0510 C   0  0  0  0  0  0  0  0  0  0  0  0
  -16.7885  202.8069  114.1131 N   0  0  0  0  0  0  0  0  0  0  0  0
  -12.6554  203.8240  116.3394 N   0  0  0  0  0  0  0  0  0  0  0  0
  -12.1540  204.8050  117.3422 C   0  0  0  0  0  0  0  0  0  0  0  0
  -12.4070  204.1436  115.4031 H   0  0  0  0  0  0  0  0  0  0  0  0
  -14.7870  205.2169  114.6870 O   0  0  0  0  0  0  0  0  0  0  0  0
  -14.2118  206.4686  114.3676 C   0  0  0  0  0  0  0  0  0  0  0  0
 24 23  2  0  0  0
 22 23  1  0  0  0
 22 21  2  0  0  0
 23 12  1  0  0  0
 21 13  1  0  0  0
 12 13  2  0  0  0
 12 11  1  0  0  0
 30 29  1  0  0  0
 30 25  2  0  0  0
 13 14  1  0  0  0
 29 28  2  0  0  0
 11 25  1  0  0  0
 11 10  2  0  0  0
 25 26  1  0  0  0
 14 15  1  0  0  0
 14  9  2  0  0  0
 28 27  1  0  0  0
 20 15  2  0  0  0
 20 19  1  0  0  0
 15 16  1  0  0  0
 10  9  1  0  0  0
 10 31  1  0  0  0
 26 27  2  0  0  0
 26 31  1  0  0  0
  9  8  1  0  0  0
 19 18  2  0  0  0
 31  2  1  0  0  0
 16  8  1  0  0  0
 16 17  2  0  0  0
  8  6  1  0  0  0
 18 17  1  0  0  0
  2  1  1  0  0  0
  2  3  1  0  0  0
 36 35  1  0  0  0
  1  6  1  0  0  0
 35  5  1  0  0  0
  6  5  1  0  0  0
  6  7  1  0  0  0
  3  4  1  0  0  0
  5  4  1  0  0  0
  4 32  1  0  0  0
 32 33  1  0  0  0
 32 34  1  0  0  0
M  END
> <minimizedAffinity>
-0.00054

$$$$



 36 43  0  0  0  0  0  0  0  0999 V2000
  -11.8281  204.7517  119.0145 O   0  0  0  0  0  0  0  0  0  0  0  0
  -11.8280  203.3871  118.6251 C   0  0  0  0  0  0  0  0  0  0  0  0
  -10.3912  202.8150  118.5182 C   0  0  0  0  0  0  0  0  0  0  0  0
   -9.3731  203.9259  118.7861 C   0  0  0  0  0  0  0  0  0  0  0  0
   -9.6576  205.1280  117.8399 C   0  0  0  0  0  0  0  0  0  0  0  0
  -11.0127  205.7113  118.3636 C   0  0  0  0  0  0  0  0  0  0  0  0
  -10.6732  206.7204  119.4446 C   0  0  0  0  0  0  0  0  0  0  0  0
  -11.8016  206.3616  117.2810 N   0  0  0  0  0  0  0  0  0  0  0  0
  -12.7217  205.5736  116.5418 C   0  0  0  0  0  0  0  0  0  0  0  0
  -13.0669  204.2840  116.6010 C   0  0  0  0  0  0  0  0  0  0  0  0
  -14.0181  203.7032  115.7073 C   0  0  0  0  0  0  0  0  0  0  0  0
  -14.5998  204.6494  114.7407 C   0  0  0  0  0  0  0  0  0  0  0  0
  -14.2581  205.9107  114.6889 C   0  0  0  0  0  0  0  0  0  0  0  0
  -13.2949  206.4711  115.5605 C   0  0  0  0  0  0  0  0  0  0  0  0
  -12.7360  207.7545  115.7509 C   0  0  0  0  0  0  0  0  0  0  0  0
  -11.7928  207.6869  116.8223 C   0  0  0  0  0  0  0  0  0  0  0  0
  -11.1006  208.7981  117.1932 C   0  0  0  0  0  0  0  0  0  0  0  0
  -11.3106  209.9832  116.5536 C   0  0  0  0  0  0  0  0  0  0  0  0
  -12.2353  210.0854  115.4720 C   0  0  0  0  0  0  0  0  0  0  0  0
  -12.9167  208.9510  115.0984 C   0  0  0  0  0  0  0  0  0  0  0  0
  -15.0083  206.6300  113.5525 C   0  0  0  0  0  0  0  0  0  0  0  0
  -15.7832  205.5087  113.0620 N   0  0  0  0  0  0  0  0  0  0  0  0
  -15.6029  204.3297  113.6755 C   0  0  0  0  0  0  0  0  0  0  0  0
  -16.1377  203.2665  113.4282 O   0  0  0  0  0  0  0  0  0  0  0  0
  -14.1266  202.3283  115.9925 C   0  0  0  0  0  0  0  0  0  0  0  0
  -13.2339  202.0689  117.0724 C   0  0  0  0  0  0  0  0  0  0  0  0
  -13.1122  200.8091  117.6649 C   0  0  0  0  0  0  0  0  0  0  0  0
  -13.8773  199.7901  117.1447 C   0  0  0  0  0  0  0  0  0  0  0  0
  -14.7583  200.0325  116.0653 C   0  0  0  0  0  0  0  0  0  0  0  0
  -14.8838  201.2776  115.5245 C   0  0  0  0  0  0  0  0  0  0  0  0
  -12.5939  203.2143  117.3961 N   0  0  0  0  0  0  0  0  0  0  0  0
   -7.9313  203.3519  118.5426 N   0  0  0  0  0  0  0  0  0  0  0  0
   -6.9027  204.3815  118.8609 C   0  0  0  0  0  0  0  0  0  0  0  0
   -7.8399  203.0763  117.5648 H   0  0  0  0  0  0  0  0  0  0  0  0
   -9.8457  204.5678  116.5250 O   0  0  0  0  0  0  0  0  0  0  0  0
   -8.9987  205.1781  115.5712 C   0  0  0  0  0  0  0  0  0  0  0  0
 24 23  2  0  0  0
 22 23  1  0  0  0
 22 21  2  0  0  0
 23 12  1  0  0  0
 21 13  1  0  0  0
 12 13  2  0  0  0
 12 11  1  0  0  0
 30 29  1  0  0  0
 30 25  2  0  0  0
 13 14  1  0  0  0
 29 28  2  0  0  0
 11 25  1  0  0  0
 11 10  2  0  0  0
 25 26  1  0  0  0
 14 15  1  0  0  0
 14  9  2  0  0  0
 28 27  1  0  0  0
 20 15  2  0  0  0
 20 19  1  0  0  0
 15 16  1  0  0  0
 10  9  1  0  0  0
 10 31  1  0  0  0
 26 27  2  0  0  0
 26 31  1  0  0  0
  9  8  1  0  0  0
 19 18  2  0  0  0
 31  2  1  0  0  0
 16  8  1  0  0  0
 16 17  2  0  0  0
  8  6  1  0  0  0
 18 17  1  0  0  0
  2  1  1  0  0  0
  2  3  1  0  0  0
 36 35  1  0  0  0
  1  6  1  0  0  0
 35  5  1  0  0  0
  6  5  1  0  0  0
  6  7  1  0  0  0
  3  4  1  0  0  0
  5  4  1  0  0  0
  4 32  1  0  0  0
 32 33  1  0  0  0
 32 34  1  0  0  0
M  END
> <minimizedAffinity>
-0.00054

$$$$



 36 43  0  0  0  0  0  0  0  0999 V2000
   -9.2141  204.0112  122.6861 O   0  0  0  0  0  0  0  0  0  0  0  0
   -9.7152  203.1296  121.6934 C   0  0  0  0  0  0  0  0  0  0  0  0
   -9.6654  203.7614  120.2787 C   0  0  0  0  0  0  0  0  0  0  0  0
   -9.1611  205.2032  120.3758 C   0  0  0  0  0  0  0  0  0  0  0  0
  -10.0314  205.9882  121.3994 C   0  0  0  0  0  0  0  0  0  0  0  0
   -9.6576  205.3541  122.7811 C   0  0  0  0  0  0  0  0  0  0  0  0
   -8.4568  206.1166  123.3089 C   0  0  0  0  0  0  0  0  0  0  0  0
  -10.7816  205.4244  123.7553 N   0  0  0  0  0  0  0  0  0  0  0  0
  -11.7090  204.3512  123.8033 C   0  0  0  0  0  0  0  0  0  0  0  0
  -11.8104  203.2063  123.1219 C   0  0  0  0  0  0  0  0  0  0  0  0
  -12.8768  202.2797  123.3342 C   0  0  0  0  0  0  0  0  0  0  0  0
  -13.8314  202.6818  124.3806 C   0  0  0  0  0  0  0  0  0  0  0  0
  -13.7256  203.8035  125.0445 C   0  0  0  0  0  0  0  0  0  0  0  0
  -12.6811  204.7281  124.8084 C   0  0  0  0  0  0  0  0  0  0  0  0
  -12.3037  205.9787  125.3460 C   0  0  0  0  0  0  0  0  0  0  0  0
  -11.1189  206.4222  124.6814 C   0  0  0  0  0  0  0  0  0  0  0  0
  -10.5593  207.6182  125.0098 C   0  0  0  0  0  0  0  0  0  0  0  0
  -11.1182  208.3942  125.9809 C   0  0  0  0  0  0  0  0  0  0  0  0
  -12.3075  207.9894  126.6570 C   0  0  0  0  0  0  0  0  0  0  0  0
  -12.8701  206.7853  126.3044 C   0  0  0  0  0  0  0  0  0  0  0  0
  -14.8912  203.9574  126.0391 C   0  0  0  0  0  0  0  0  0  0  0  0
  -15.5813  202.7156  125.7566 N   0  0  0  0  0  0  0  0  0  0  0  0
  -15.0519  201.9272  124.8095 C   0  0  0  0  0  0  0  0  0  0  0  0
  -15.4631  200.8550  124.4107 O   0  0  0  0  0  0  0  0  0  0  0  0
  -12.7290  201.2055  122.4354 C   0  0  0  0  0  0  0  0  0  0  0  0
  -11.5594  201.4793  121.6688 C   0  0  0  0  0  0  0  0  0  0  0  0
  -11.0660  200.5970  120.7038 C   0  0  0  0  0  0  0  0  0  0  0  0
  -11.7752  199.4377  120.4867 C   0  0  0  0  0  0  0  0  0  0  0  0
  -12.9441  199.1603  121.2330 C   0  0  0  0  0  0  0  0  0  0  0  0
  -13.3883  200.0214  122.1920 C   0  0  0  0  0  0  0  0  0  0  0  0
  -11.0509  202.6700  122.0562 N   0  0  0  0  0  0  0  0  0  0  0  0
   -9.2455  205.8594  118.9511 N   0  0  0  0  0  0  0  0  0  0  0  0
   -8.6970  207.2441  118.9846 C   0  0  0  0  0  0  0  0  0  0  0  0
  -10.2203  205.8910  118.6527 H   0  0  0  0  0  0  0  0  0  0  0  0
  -11.4029  205.6807  121.0790 O   0  0  0  0  0  0  0  0  0  0  0  0
  -12.1706  206.8531  120.8902 C   0  0  0  0  0  0  0  0  0  0  0  0
 24 23  2  0  0  0
 22 23  1  0  0  0
 22 21  2  0  0  0
 23 12  1  0  0  0
 21 13  1  0  0  0
 12 13  2  0  0  0
 12 11  1  0  0  0
 30 29  1  0  0  0
 30 25  2  0  0  0
 13 14  1  0  0  0
 29 28  2  0  0  0
 11 25  1  0  0  0
 11 10  2  0  0  0
 25 26  1  0  0  0
 14 15  1  0  0  0
 14  9  2  0  0  0
 28 27  1  0  0  0
 20 15  2  0  0  0
 20 19  1  0  0  0
 15 16  1  0  0  0
 10  9  1  0  0  0
 10 31  1  0  0  0
 26 27  2  0  0  0
 26 31  1  0  0  0
  9  8  1  0  0  0
 19 18  2  0  0  0
 31  2  1  0  0  0
 16  8  1  0  0  0
 16 17  2  0  0  0
  8  6  1  0  0  0
 18 17  1  0  0  0
  2  1  1  0  0  0
  2  3  1  0  0  0
 36 35  1  0  0  0
  1  6  1  0  0  0
 35  5  1  0  0  0
  6  5  1  0  0  0
  6  7  1  0  0  0
  3  4  1  0  0  0
  5  4  1  0  0  0
  4 32  1  0  0  0
 32 33  1  0  0  0
 32 34  1  0  0  0
M  END
> <minimizedAffinity>
-0.00004

$$$$
