
 OpenBabel07192212403D

 24 26  0  0  0  0  0  0  0  0999 V2000
  -13.8042  204.2152  113.5488 N   0  0  0  0  0  0  0  0  0  0  0  0
  -12.8757  203.1920  113.4417 C   0  0  0  0  0  0  0  0  0  0  0  0
  -13.2187  201.9493  112.9167 N   0  0  0  0  0  0  0  0  0  0  0  0
  -14.5525  201.6530  112.4955 C   0  0  0  0  0  0  0  0  0  0  0  0
  -15.6400  202.7489  112.6301 C   0  0  0  0  0  0  0  0  0  0  0  0
  -15.1796  204.0840  113.1280 C   0  0  0  0  0  0  0  0  0  0  0  0
  -14.8939  200.3381  111.9392 C   0  0  0  0  0  0  0  0  0  0  0  0
  -16.2704  200.0301  111.4949 C   0  0  0  0  0  0  0  0  0  0  0  0
  -17.3592  201.0525  111.6989 C   0  0  0  0  0  0  0  0  0  0  0  0
  -17.0235  202.3970  112.2723 C   0  0  0  0  0  0  0  0  0  0  0  0
  -16.0474  205.2025  113.2128 N   0  0  0  0  0  0  0  0  0  0  0  0
  -16.1475  205.5172  114.1402 H   0  0  0  0  0  0  0  0  0  0  0  0
  -16.8009  205.9775  112.3157 C   0  0  0  0  0  0  0  0  0  0  0  0
  -16.2699  206.0179  110.9343 C   0  0  0  0  0  0  0  0  0  0  0  0
  -16.9423  206.8123  109.8846 C   0  0  0  0  0  0  0  0  0  0  0  0
  -18.1976  207.5140  110.1795 C   0  0  0  0  0  0  0  0  0  0  0  0
  -18.7528  207.4925  111.5462 C   0  0  0  0  0  0  0  0  0  0  0  0
  -18.0503  206.7566  112.6120 C   0  0  0  0  0  0  0  0  0  0  0  0
  -16.4005  206.9143  108.6220 O   0  0  0  0  0  0  0  0  0  0  0  0
  -16.8359  207.4207  107.9648 H   0  0  0  0  0  0  0  0  0  0  0  0
  -16.6389  198.8259  110.8434 O   0  0  0  0  0  0  0  0  0  0  0  0
  -16.3954  198.5552  109.4579 C   0  0  0  0  0  0  0  0  0  0  0  0
  -18.6736  200.6835  111.2786 O   0  0  0  0  0  0  0  0  0  0  0  0
  -19.2693  201.2579  110.1099 C   0  0  0  0  0  0  0  0  0  0  0  0
  1  6  2  0  0  0  0
  2  3  2  0  0  0  0
  2  1  1  0  0  0  0
  3  4  1  0  0  0  0
  4  7  2  0  0  0  0
  4  5  1  0  0  0  0
  5 10  2  0  0  0  0
  6  5  1  0  0  0  0
  6 11  1  0  0  0  0
  7  8  1  0  0  0  0
  8 21  1  0  0  0  0
  8  9  2  0  0  0  0
  9 23  1  0  0  0  0
 10  9  1  0  0  0  0
 11 13  1  0  0  0  0
 11 12  1  0  0  0  0
 13 14  1  0  0  0  0
 14 15  2  0  0  0  0
 15 19  1  0  0  0  0
 16 15  1  0  0  0  0
 17 16  2  0  0  0  0
 18 17  1  0  0  0  0
 18 13  2  0  0  0  0
 19 20  1  0  0  0  0
 22 21  1  0  0  0  0
 23 24  1  0  0  0  0
M  END
>  <minimizedAffinity>
-0.00003

$$$$
