


 23 25  0  0  0  0  0  0  0  0999 V2000
  -19.5362  204.8869  108.7464 Br  0  0  0  0  0  0  0  0  0  0  0  0
  -14.7193  206.8161  107.4248 O   0  0  0  0  0  0  0  0  0  0  0  0
  -12.5723  202.4056  112.8709 O   0  0  0  0  0  0  0  0  0  0  0  0
  -16.8470  205.4513  108.3888 N   0  0  0  0  0  0  0  0  0  0  0  0
  -13.1986  205.3520  108.3125 N   0  0  0  0  0  0  0  0  0  0  0  0
  -14.4720  201.3260  113.5868 N   0  0  0  0  0  0  0  0  0  0  0  0
  -15.9895  202.3430  112.2819 N   0  0  0  0  0  0  0  0  0  0  0  0
  -16.7403  200.7085  113.7567 N   0  0  0  0  0  0  0  0  0  0  0  0
  -17.7342  204.8277  109.1671 C   0  0  0  0  0  0  0  0  0  0  0  0
  -17.1209  204.2015  110.2116 C   0  0  0  0  0  0  0  0  0  0  0  0
  -15.7296  204.4473  110.0625 C   0  0  0  0  0  0  0  0  0  0  0  0
  -15.6081  205.2540  108.8897 C   0  0  0  0  0  0  0  0  0  0  0  0
  -14.4786  205.8536  108.1646 C   0  0  0  0  0  0  0  0  0  0  0  0
  -12.7484  204.2259  109.1471 C   0  0  0  0  0  0  0  0  0  0  0  0
  -13.1394  204.3621  110.6075 C   0  0  0  0  0  0  0  0  0  0  0  0
  -14.5572  203.8750  110.8941 C   0  0  0  0  0  0  0  0  0  0  0  0
  -14.7709  202.9168  111.8901 C   0  0  0  0  0  0  0  0  0  0  0  0
  -13.7969  202.2126  112.8187 C   0  0  0  0  0  0  0  0  0  0  0  0
  -15.7601  201.4221  113.2366 C   0  0  0  0  0  0  0  0  0  0  0  0
  -12.4973  205.8068  107.7922 H   0  0  0  0  0  0  0  0  0  0  0  0
  -16.8732  202.5769  111.9164 H   0  0  0  0  0  0  0  0  0  0  0  0
  -17.6644  200.8395  113.4434 H   0  0  0  0  0  0  0  0  0  0  0  0
  -16.5477  200.0450  114.4580 H   0  0  0  0  0  0  0  0  0  0  0  0
  2 13  2  0  0  0
  5 13  1  0  0  0
  5 14  1  0  0  0
 13 12  1  0  0  0
 14 15  1  0  0  0
 15 16  1  0  0  0
 12  4  2  0  0  0
 12 11  1  0  0  0
  4  9  1  0  0  0
 11 16  1  0  0  0
 11 10  2  0  0  0
 16 17  2  0  0  0
  9 10  1  0  0  0
  9  1  1  0  0  0
  3 18  2  0  0  0
 17 18  1  0  0  0
 17  7  1  0  0  0
 18  6  1  0  0  0
  7 19  1  0  0  0
  6 19  2  0  0  0
 19  8  1  0  0  0
  5 20  1  0  0  0
  7 21  1  0  0  0
  8 22  1  0  0  0
  8 23  1  0  0  0
M  END
> <minimizedAffinity>
0.00000

$$$$



 23 25  0  0  0  0  0  0  0  0999 V2000
  -14.2907  200.7724  115.4469 Br  0  0  0  0  0  0  0  0  0  0  0  0
  -10.4916  201.3496  111.7179 O   0  0  0  0  0  0  0  0  0  0  0  0
   -8.8677  207.2668  115.7268 O   0  0  0  0  0  0  0  0  0  0  0  0
  -12.1032  201.4539  113.8884 N   0  0  0  0  0  0  0  0  0  0  0  0
   -8.9407  202.7692  112.6254 N   0  0  0  0  0  0  0  0  0  0  0  0
  -10.3098  207.2239  117.5172 N   0  0  0  0  0  0  0  0  0  0  0  0
  -11.5346  205.4260  116.9627 N   0  0  0  0  0  0  0  0  0  0  0  0
  -12.0527  206.5293  118.9438 N   0  0  0  0  0  0  0  0  0  0  0  0
  -12.8872  201.8462  114.8950 C   0  0  0  0  0  0  0  0  0  0  0  0
  -12.4909  203.0544  115.3876 C   0  0  0  0  0  0  0  0  0  0  0  0
  -11.3537  203.4408  114.6287 C   0  0  0  0  0  0  0  0  0  0  0  0
  -11.1517  202.3902  113.6819 C   0  0  0  0  0  0  0  0  0  0  0  0
  -10.1716  202.1393  112.6154 C   0  0  0  0  0  0  0  0  0  0  0  0
   -8.4123  203.7286  113.6091 C   0  0  0  0  0  0  0  0  0  0  0  0
   -9.3151  204.9292  113.8274 C   0  0  0  0  0  0  0  0  0  0  0  0
  -10.4287  204.6634  114.8367 C   0  0  0  0  0  0  0  0  0  0  0  0
  -10.5868  205.5176  115.9326 C   0  0  0  0  0  0  0  0  0  0  0  0
   -9.8128  206.7566  116.3482 C   0  0  0  0  0  0  0  0  0  0  0  0
  -11.3166  206.4097  117.8554 C   0  0  0  0  0  0  0  0  0  0  0  0
   -8.3398  202.5474  111.8777 H   0  0  0  0  0  0  0  0  0  0  0  0
  -12.2469  204.7491  117.0232 H   0  0  0  0  0  0  0  0  0  0  0  0
  -12.7774  205.8869  119.1210 H   0  0  0  0  0  0  0  0  0  0  0  0
  -11.8772  207.2608  119.5788 H   0  0  0  0  0  0  0  0  0  0  0  0
  2 13  2  0  0  0
  5 13  1  0  0  0
  5 14  1  0  0  0
 13 12  1  0  0  0
 14 15  1  0  0  0
 15 16  1  0  0  0
 12  4  2  0  0  0
 12 11  1  0  0  0
  4  9  1  0  0  0
 11 16  1  0  0  0
 11 10  2  0  0  0
 16 17  2  0  0  0
  9 10  1  0  0  0
  9  1  1  0  0  0
  3 18  2  0  0  0
 17 18  1  0  0  0
 17  7  1  0  0  0
 18  6  1  0  0  0
  7 19  1  0  0  0
  6 19  2  0  0  0
 19  8  1  0  0  0
  5 20  1  0  0  0
  7 21  1  0  0  0
  8 22  1  0  0  0
  8 23  1  0  0  0
M  END
> <minimizedAffinity>
0.00000

$$$$



 23 25  0  0  0  0  0  0  0  0999 V2000
  -15.8806  200.8149  117.2374 Br  0  0  0  0  0  0  0  0  0  0  0  0
  -10.5568  201.1536  116.7749 O   0  0  0  0  0  0  0  0  0  0  0  0
  -12.2275  207.7027  113.9394 O   0  0  0  0  0  0  0  0  0  0  0  0
  -13.2300  201.5498  116.9017 N   0  0  0  0  0  0  0  0  0  0  0  0
  -10.0960  203.3819  116.5161 N   0  0  0  0  0  0  0  0  0  0  0  0
  -14.5126  207.8931  114.1096 N   0  0  0  0  0  0  0  0  0  0  0  0
  -14.9915  205.8655  114.9459 N   0  0  0  0  0  0  0  0  0  0  0  0
  -16.7550  207.3362  114.5754 N   0  0  0  0  0  0  0  0  0  0  0  0
  -14.4953  201.8973  116.6568 C   0  0  0  0  0  0  0  0  0  0  0  0
  -14.5607  203.0782  115.9782 C   0  0  0  0  0  0  0  0  0  0  0  0
  -13.2189  203.5082  115.7961 C   0  0  0  0  0  0  0  0  0  0  0  0
  -12.4090  202.4961  116.3966 C   0  0  0  0  0  0  0  0  0  0  0  0
  -10.9622  202.3056  116.5741 C   0  0  0  0  0  0  0  0  0  0  0  0
  -10.4144  204.8005  116.2847 C   0  0  0  0  0  0  0  0  0  0  0  0
  -11.2072  205.0422  115.0130 C   0  0  0  0  0  0  0  0  0  0  0  0
  -12.7087  204.8408  115.1981 C   0  0  0  0  0  0  0  0  0  0  0  0
  -13.5930  205.8622  114.8366 C   0  0  0  0  0  0  0  0  0  0  0  0
  -13.3362  207.2379  114.2464 C   0  0  0  0  0  0  0  0  0  0  0  0
  -15.4657  207.0585  114.5410 C   0  0  0  0  0  0  0  0  0  0  0  0
   -9.1430  203.1724  116.6464 H   0  0  0  0  0  0  0  0  0  0  0  0
  -15.5398  205.1139  115.2678 H   0  0  0  0  0  0  0  0  0  0  0  0
  -17.3943  206.6655  114.9081 H   0  0  0  0  0  0  0  0  0  0  0  0
  -17.0778  208.2142  114.2684 H   0  0  0  0  0  0  0  0  0  0  0  0
  2 13  2  0  0  0
  5 13  1  0  0  0
  5 14  1  0  0  0
 13 12  1  0  0  0
 14 15  1  0  0  0
 15 16  1  0  0  0
 12  4  2  0  0  0
 12 11  1  0  0  0
  4  9  1  0  0  0
 11 16  1  0  0  0
 11 10  2  0  0  0
 16 17  2  0  0  0
  9 10  1  0  0  0
  9  1  1  0  0  0
  3 18  2  0  0  0
 17 18  1  0  0  0
 17  7  1  0  0  0
 18  6  1  0  0  0
  7 19  1  0  0  0
  6 19  2  0  0  0
 19  8  1  0  0  0
  5 20  1  0  0  0
  7 21  1  0  0  0
  8 22  1  0  0  0
  8 23  1  0  0  0
M  END
> <minimizedAffinity>
0.00000

$$$$
