
 OpenBabel07192212403D

 39 41  0  0  0  0  0  0  0  0999 V2000
  -13.4255  201.9644  119.4061 C   0  0  1  0  0  0  0  0  0  0  0  0
  -14.2739  201.4310  118.3735 O   0  0  0  0  0  0  0  0  0  0  0  0
  -12.4246  202.9165  118.7345 C   0  0  1  0  0  0  0  0  0  0  0  0
  -11.2856  202.0554  118.4069 O   0  0  0  0  0  0  0  0  0  0  0  0
  -13.2067  203.2288  117.4048 C   0  0  1  0  0  0  0  0  0  0  0  0
  -12.2228  203.6198  116.4146 O   0  0  0  0  0  0  0  0  0  0  0  0
  -13.8887  201.8622  117.1008 C   0  0  2  0  0  0  0  0  0  0  0  0
  -11.5979  201.2785  117.9171 H   0  0  0  0  0  0  0  0  0  0  0  0
  -11.5416  202.9326  116.3468 H   0  0  0  0  0  0  0  0  0  0  0  0
  -15.1875  201.9666  116.4134 N   0  0  0  0  0  0  0  0  0  0  0  0
  -16.0353  200.9132  116.2496 C   0  0  0  0  0  0  0  0  0  0  0  0
  -17.2592  201.1725  116.0122 N   0  0  0  0  0  0  0  0  0  0  0  0
  -17.2960  202.4847  115.9607 C   0  0  0  0  0  0  0  0  0  0  0  0
  -18.3732  203.3132  115.7330 C   0  0  0  0  0  0  0  0  0  0  0  0
  -19.6325  202.9639  115.5139 N   0  0  0  0  0  0  0  0  0  0  0  0
  -18.1223  204.6420  115.7649 N   0  0  0  0  0  0  0  0  0  0  0  0
  -16.8524  205.0912  116.0157 C   0  0  0  0  0  0  0  0  0  0  0  0
  -15.7624  204.3711  116.2428 N   0  0  0  0  0  0  0  0  0  0  0  0
  -16.0541  203.0461  116.2002 C   0  0  0  0  0  0  0  0  0  0  0  0
  -20.3163  203.6560  115.3634 H   0  0  0  0  0  0  0  0  0  0  0  0
  -19.8843  202.0122  115.5017 H   0  0  0  0  0  0  0  0  0  0  0  0
  -14.2854  202.7310  120.4107 C   0  0  0  0  0  0  0  0  0  0  0  0
  -15.6822  202.5352  120.0165 O   0  0  0  0  0  0  0  0  0  0  0  0
  -16.4665  203.8969  119.9324 P   0  0  2  0  0  0  0  0  0  0  0  0
  -15.7166  204.9132  119.1066 O   0  0  0  0  0  0  0  0  0  0  0  0
  -16.7000  204.5156  121.2568 O   0  0  0  0  0  0  0  0  0  0  0  0
  -14.8949  205.1563  119.5611 H   0  0  0  0  0  0  0  0  0  0  0  0
  -17.8173  203.5489  119.1044 O   0  0  0  0  0  0  0  0  0  0  0  0
  -19.4091  203.6461  119.4118 P   0  0  2  0  0  0  0  0  0  0  0  0
  -20.1012  204.2552  118.2904 O   0  0  0  0  0  0  0  0  0  0  0  0
  -19.5506  204.4682  120.6395 O   0  0  0  0  0  0  0  0  0  0  0  0
  -19.3392  205.3927  120.4358 H   0  0  0  0  0  0  0  0  0  0  0  0
  -19.7515  202.1256  119.7243 O   0  0  0  0  0  0  0  0  0  0  0  0
  -19.1480  200.8553  118.9968 P   0  0  0  0  0  0  0  0  0  0  0  0
  -17.6800  200.8260  118.9794 O   0  0  0  0  0  0  0  0  0  0  0  0
  -19.6992  199.6361  119.6387 O   0  0  0  0  0  0  0  0  0  0  0  0
  -19.6579  200.8176  117.5903 O   0  0  0  0  0  0  0  0  0  0  0  0
  -17.3780  200.0261  118.5213 H   0  0  0  0  0  0  0  0  0  0  0  0
  -20.6276  200.8368  117.5973 H   0  0  0  0  0  0  0  0  0  0  0  0
  1 22  1  1  0  0  0
  1  3  1  0  0  0  0
  2  1  1  0  0  0  0
  3  4  1  6  0  0  0
  4  8  1  0  0  0  0
  5  6  1  6  0  0  0
  5  3  1  0  0  0  0
  6  9  1  0  0  0  0
  7 10  1  6  0  0  0
  7  2  1  0  0  0  0
  7  5  1  0  0  0  0
 11 10  1  0  0  0  0
 12 11  2  0  0  0  0
 13 19  1  0  0  0  0
 13 12  1  0  0  0  0
 14 13  2  0  0  0  0
 15 14  1  0  0  0  0
 15 20  1  0  0  0  0
 15 21  1  0  0  0  0
 16 14  1  0  0  0  0
 16 17  2  0  0  0  0
 17 18  1  0  0  0  0
 18 19  2  0  0  0  0
 19 10  1  0  0  0  0
 23 22  1  0  0  0  0
 23 24  1  0  0  0  0
 24 26  2  1  0  0  0
 24 25  1  0  0  0  0
 24 28  1  0  0  0  0
 25 27  1  0  0  0  0
 28 29  1  0  0  0  0
 29 30  2  6  0  0  0
 29 31  1  0  0  0  0
 29 33  1  0  0  0  0
 31 32  1  0  0  0  0
 34 33  1  0  0  0  0
 34 35  1  0  0  0  0
 35 38  1  0  0  0  0
 36 34  2  0  0  0  0
 37 34  1  0  0  0  0
 37 39  1  0  0  0  0
M  END
>  <minimizedAffinity>
-0.00162

$$$$
