


 24 26  0  0  0  0  0  0  0  0999 V2000
  -14.1189  201.3799  107.1972 N   0  0  0  0  0  0  0  0  0  0  0  0
  -15.1217  202.1665  106.6530 C   0  0  0  0  0  0  0  0  0  0  0  0
  -16.0323  202.8455  107.4577 N   0  0  0  0  0  0  0  0  0  0  0  0
  -16.0026  202.7377  108.8830 C   0  0  0  0  0  0  0  0  0  0  0  0
  -14.9259  201.8394  109.5428 C   0  0  0  0  0  0  0  0  0  0  0  0
  -13.9328  201.2050  108.6188 C   0  0  0  0  0  0  0  0  0  0  0  0
  -16.9681  203.4659  109.7153 C   0  0  0  0  0  0  0  0  0  0  0  0
  -16.9359  203.3636  111.1903 C   0  0  0  0  0  0  0  0  0  0  0  0
  -15.9527  202.4273  111.8451 C   0  0  0  0  0  0  0  0  0  0  0  0
  -14.9658  201.6731  111.0045 C   0  0  0  0  0  0  0  0  0  0  0  0
  -12.8404  200.4346  109.0923 N   0  0  0  0  0  0  0  0  0  0  0  0
  -12.8870  199.5031  108.7770 H   0  0  0  0  0  0  0  0  0  0  0  0
  -11.7092  200.6567  109.8948 C   0  0  0  0  0  0  0  0  0  0  0  0
  -11.2124  202.0513  109.8931 C   0  0  0  0  0  0  0  0  0  0  0  0
  -10.0150  202.4325  110.6715 C   0  0  0  0  0  0  0  0  0  0  0  0
   -9.3430  201.4445  111.5243 C   0  0  0  0  0  0  0  0  0  0  0  0
   -9.8141  200.0466  111.5482 C   0  0  0  0  0  0  0  0  0  0  0  0
  -10.9670  199.6467  110.7225 C   0  0  0  0  0  0  0  0  0  0  0  0
   -9.5072  203.7114  110.6028 O   0  0  0  0  0  0  0  0  0  0  0  0
   -8.7475  203.9412  111.1009 H   0  0  0  0  0  0  0  0  0  0  0  0
  -17.7609  204.1290  112.0529 O   0  0  0  0  0  0  0  0  0  0  0  0
  -17.5185  205.5004  112.3882 C   0  0  0  0  0  0  0  0  0  0  0  0
  -15.9925  202.3487  113.2709 O   0  0  0  0  0  0  0  0  0  0  0  0
  -14.9619  202.9309  114.0767 C   0  0  0  0  0  0  0  0  0  0  0  0
  2  3  2  0  0  0
  2  1  1  0  0  0
  3  4  1  0  0  0
  1  6  2  0  0  0
  4  7  2  0  0  0
  4  5  1  0  0  0
  7  8  1  0  0  0
 22 21  1  0  0  0
  6  5  1  0  0  0
  6 11  1  0  0  0
  5 10  2  0  0  0
  8 21  1  0  0  0
  8  9  2  0  0  0
 18 17  1  0  0  0
 18 13  2  0  0  0
 17 16  2  0  0  0
 11 13  1  0  0  0
 13 14  1  0  0  0
 10  9  1  0  0  0
  9 23  1  0  0  0
 16 15  1  0  0  0
 14 15  2  0  0  0
 23 24  1  0  0  0
 15 19  1  0  0  0
 11 12  1  0  0  0
 19 20  1  0  0  0
M  END
> <minimizedAffinity>
-0.00008

$$$$



 24 26  0  0  0  0  0  0  0  0999 V2000
  -14.7444  210.5220  117.6219 N   0  0  0  0  0  0  0  0  0  0  0  0
  -14.2525  211.0208  118.8176 C   0  0  0  0  0  0  0  0  0  0  0  0
  -14.1393  210.2189  119.9497 N   0  0  0  0  0  0  0  0  0  0  0  0
  -14.5578  208.8518  119.9477 C   0  0  0  0  0  0  0  0  0  0  0  0
  -15.1523  208.2536  118.6475 C   0  0  0  0  0  0  0  0  0  0  0  0
  -15.1685  209.1521  117.4497 C   0  0  0  0  0  0  0  0  0  0  0  0
  -14.4255  208.0201  121.1501 C   0  0  0  0  0  0  0  0  0  0  0  0
  -14.8496  206.6034  121.1501 C   0  0  0  0  0  0  0  0  0  0  0  0
  -15.5100  206.0295  119.9227 C   0  0  0  0  0  0  0  0  0  0  0  0
  -15.6565  206.8716  118.6904 C   0  0  0  0  0  0  0  0  0  0  0  0
  -15.5982  208.7074  116.1735 N   0  0  0  0  0  0  0  0  0  0  0  0
  -16.3873  209.2057  115.8601 H   0  0  0  0  0  0  0  0  0  0  0  0
  -15.1892  207.7398  115.2410 C   0  0  0  0  0  0  0  0  0  0  0  0
  -13.7491  207.4002  115.2917 C   0  0  0  0  0  0  0  0  0  0  0  0
  -13.1669  206.4159  114.3550 C   0  0  0  0  0  0  0  0  0  0  0  0
  -14.0286  205.6992  113.4069 C   0  0  0  0  0  0  0  0  0  0  0  0
  -15.4678  206.0146  113.3322 C   0  0  0  0  0  0  0  0  0  0  0  0
  -16.0406  207.0429  114.2185 C   0  0  0  0  0  0  0  0  0  0  0  0
  -11.8126  206.1631  114.3499 O   0  0  0  0  0  0  0  0  0  0  0  0
  -11.4552  205.5369  113.7515 H   0  0  0  0  0  0  0  0  0  0  0  0
  -14.6416  205.7170  122.2371 O   0  0  0  0  0  0  0  0  0  0  0  0
  -13.3899  205.0851  122.5301 C   0  0  0  0  0  0  0  0  0  0  0  0
  -15.9263  204.6649  119.9959 O   0  0  0  0  0  0  0  0  0  0  0  0
  -15.2271  203.6353  119.2878 C   0  0  0  0  0  0  0  0  0  0  0  0
  2  3  2  0  0  0
  2  1  1  0  0  0
  3  4  1  0  0  0
  1  6  2  0  0  0
  4  7  2  0  0  0
  4  5  1  0  0  0
  7  8  1  0  0  0
 22 21  1  0  0  0
  6  5  1  0  0  0
  6 11  1  0  0  0
  5 10  2  0  0  0
  8 21  1  0  0  0
  8  9  2  0  0  0
 18 17  1  0  0  0
 18 13  2  0  0  0
 17 16  2  0  0  0
 11 13  1  0  0  0
 13 14  1  0  0  0
 10  9  1  0  0  0
  9 23  1  0  0  0
 16 15  1  0  0  0
 14 15  2  0  0  0
 23 24  1  0  0  0
 15 19  1  0  0  0
 11 12  1  0  0  0
 19 20  1  0  0  0
M  END
> <minimizedAffinity>
-0.00004

$$$$



 24 26  0  0  0  0  0  0  0  0999 V2000
  -13.8042  204.2152  113.5488 N   0  0  0  0  0  0  0  0  0  0  0  0
  -12.8757  203.1920  113.4417 C   0  0  0  0  0  0  0  0  0  0  0  0
  -13.2187  201.9493  112.9167 N   0  0  0  0  0  0  0  0  0  0  0  0
  -14.5525  201.6530  112.4955 C   0  0  0  0  0  0  0  0  0  0  0  0
  -15.6400  202.7489  112.6301 C   0  0  0  0  0  0  0  0  0  0  0  0
  -15.1796  204.0840  113.1280 C   0  0  0  0  0  0  0  0  0  0  0  0
  -14.8939  200.3381  111.9392 C   0  0  0  0  0  0  0  0  0  0  0  0
  -16.2704  200.0301  111.4949 C   0  0  0  0  0  0  0  0  0  0  0  0
  -17.3592  201.0525  111.6989 C   0  0  0  0  0  0  0  0  0  0  0  0
  -17.0235  202.3970  112.2723 C   0  0  0  0  0  0  0  0  0  0  0  0
  -16.0474  205.2025  113.2128 N   0  0  0  0  0  0  0  0  0  0  0  0
  -16.1475  205.5172  114.1402 H   0  0  0  0  0  0  0  0  0  0  0  0
  -16.8009  205.9775  112.3157 C   0  0  0  0  0  0  0  0  0  0  0  0
  -16.2699  206.0179  110.9343 C   0  0  0  0  0  0  0  0  0  0  0  0
  -16.9423  206.8123  109.8846 C   0  0  0  0  0  0  0  0  0  0  0  0
  -18.1976  207.5140  110.1795 C   0  0  0  0  0  0  0  0  0  0  0  0
  -18.7528  207.4925  111.5462 C   0  0  0  0  0  0  0  0  0  0  0  0
  -18.0503  206.7566  112.6120 C   0  0  0  0  0  0  0  0  0  0  0  0
  -16.4005  206.9143  108.6220 O   0  0  0  0  0  0  0  0  0  0  0  0
  -16.8359  207.4207  107.9648 H   0  0  0  0  0  0  0  0  0  0  0  0
  -16.6389  198.8259  110.8434 O   0  0  0  0  0  0  0  0  0  0  0  0
  -16.3954  198.5552  109.4579 C   0  0  0  0  0  0  0  0  0  0  0  0
  -18.6736  200.6835  111.2786 O   0  0  0  0  0  0  0  0  0  0  0  0
  -19.2693  201.2579  110.1099 C   0  0  0  0  0  0  0  0  0  0  0  0
  2  3  2  0  0  0
  2  1  1  0  0  0
  3  4  1  0  0  0
  1  6  2  0  0  0
  4  7  2  0  0  0
  4  5  1  0  0  0
  7  8  1  0  0  0
 22 21  1  0  0  0
  6  5  1  0  0  0
  6 11  1  0  0  0
  5 10  2  0  0  0
  8 21  1  0  0  0
  8  9  2  0  0  0
 18 17  1  0  0  0
 18 13  2  0  0  0
 17 16  2  0  0  0
 11 13  1  0  0  0
 13 14  1  0  0  0
 10  9  1  0  0  0
  9 23  1  0  0  0
 16 15  1  0  0  0
 14 15  2  0  0  0
 23 24  1  0  0  0
 15 19  1  0  0  0
 11 12  1  0  0  0
 19 20  1  0  0  0
M  END
> <minimizedAffinity>
-0.00003

$$$$
