
 OpenBabel07192212403D

 19 21  0  0  0  0  0  0  0  0999 V2000
  -14.7826  207.9446  113.1249 N   0  0  0  0  0  0  0  0  0  0  0  0
  -17.3621  203.5161  111.9310 C   0  0  0  0  0  0  0  0  0  0  0  0
  -17.0013  204.9290  111.5502 N   0  0  0  0  0  0  0  0  0  0  0  0
  -16.1719  205.8489  112.2274 C   0  0  0  0  0  0  0  0  0  0  0  0
  -15.4935  205.6541  113.3975 N   0  0  0  0  0  0  0  0  0  0  0  0
  -14.8225  206.7263  113.7882 C   0  0  0  0  0  0  0  0  0  0  0  0
  -15.4661  208.1607  111.9370 C   0  0  0  0  0  0  0  0  0  0  0  0
  -16.2267  207.0181  111.4381 C   0  0  0  0  0  0  0  0  0  0  0  0
  -17.0069  206.8596  110.3363 N   0  0  0  0  0  0  0  0  0  0  0  0
  -17.4692  205.6142  110.4130 C   0  0  0  0  0  0  0  0  0  0  0  0
  -15.4173  209.4048  111.2931 N   0  0  0  0  0  0  0  0  0  0  0  0
  -14.5602  209.7734  110.9790 H   0  0  0  0  0  0  0  0  0  0  0  0
  -16.6590  210.1429  111.0972 C   0  0  0  0  0  0  0  0  0  0  0  0
  -17.0395  210.5088  109.8057 C   0  0  0  0  0  0  0  0  0  0  0  0
  -18.2277  211.2074  109.5879 C   0  0  0  0  0  0  0  0  0  0  0  0
  -19.0493  211.5484  110.6645 C   0  0  0  0  0  0  0  0  0  0  0  0
  -18.6780  211.1856  111.9642 C   0  0  0  0  0  0  0  0  0  0  0  0
  -19.6848  211.5982  113.2944 Cl  0  0  0  0  0  0  0  0  0  0  0  0
  -17.4847  210.4833  112.1797 C   0  0  0  0  0  0  0  0  0  0  0  0
  1  6  1  0  0  0  0
  3  2  1  0  0  0  0
  3  4  1  0  0  0  0
  4  5  1  0  0  0  0
  5  6  2  0  0  0  0
  7  1  2  0  0  0  0
  8  4  2  0  0  0  0
  8  7  1  0  0  0  0
  9  8  1  0  0  0  0
 10  9  2  0  0  0  0
 10  3  1  0  0  0  0
 11  7  1  0  0  0  0
 11 13  1  0  0  0  0
 11 12  1  0  0  0  0
 13 19  1  0  0  0  0
 14 13  2  0  0  0  0
 14 15  1  0  0  0  0
 15 16  2  0  0  0  0
 16 17  1  0  0  0  0
 17 18  1  0  0  0  0
 19 17  2  0  0  0  0
M  END
>  <minimizedAffinity>
0.00000

$$$$
