
 OpenBabel07192212403D

 39 41  0  0  0  0  0  0  0  0999 V2000
   -9.2393  208.3274  116.6525 C   0  0  1  0  0  0  0  0  0  0  0  0
   -8.0889  208.1322  117.4946 O   0  0  0  0  0  0  0  0  0  0  0  0
   -9.1502  207.3086  115.5065 C   0  0  1  0  0  0  0  0  0  0  0  0
   -8.4107  208.0197  114.4606 O   0  0  0  0  0  0  0  0  0  0  0  0
   -8.1849  206.2534  116.1639 C   0  0  1  0  0  0  0  0  0  0  0  0
   -7.5321  205.5425  115.0824 O   0  0  0  0  0  0  0  0  0  0  0  0
   -7.2220  207.1615  116.9844 C   0  0  2  0  0  0  0  0  0  0  0  0
   -7.5918  208.3822  114.8331 H   0  0  0  0  0  0  0  0  0  0  0  0
   -7.1098  206.1795  114.4852 H   0  0  0  0  0  0  0  0  0  0  0  0
   -6.7027  206.5451  118.2176 N   0  0  0  0  0  0  0  0  0  0  0  0
   -6.0244  207.2386  119.1738 C   0  0  0  0  0  0  0  0  0  0  0  0
   -5.9694  206.7334  120.3414 N   0  0  0  0  0  0  0  0  0  0  0  0
   -6.6075  205.5916  120.2179 C   0  0  0  0  0  0  0  0  0  0  0  0
   -6.8548  204.6294  121.1726 C   0  0  0  0  0  0  0  0  0  0  0  0
   -6.4995  204.6438  122.4491 N   0  0  0  0  0  0  0  0  0  0  0  0
   -7.5697  203.5552  120.7670 N   0  0  0  0  0  0  0  0  0  0  0  0
   -8.0039  203.4740  119.4701 C   0  0  0  0  0  0  0  0  0  0  0  0
   -7.8123  204.3460  118.4897 N   0  0  0  0  0  0  0  0  0  0  0  0
   -7.0905  205.4060  118.9345 C   0  0  0  0  0  0  0  0  0  0  0  0
   -6.7377  203.8893  123.0350 H   0  0  0  0  0  0  0  0  0  0  0  0
   -5.9973  205.4091  122.8117 H   0  0  0  0  0  0  0  0  0  0  0  0
  -10.5050  208.0832  117.4740 C   0  0  0  0  0  0  0  0  0  0  0  0
  -10.0810  207.8576  118.8575 O   0  0  0  0  0  0  0  0  0  0  0  0
  -10.7256  206.5575  119.4661 P   0  0  2  0  0  0  0  0  0  0  0  0
  -10.5405  205.3718  118.5510 O   0  0  0  0  0  0  0  0  0  0  0  0
  -12.1811  206.6869  119.7033 O   0  0  0  0  0  0  0  0  0  0  0  0
  -11.0462  205.5111  117.7351 H   0  0  0  0  0  0  0  0  0  0  0  0
   -9.8522  206.2430  120.7963 O   0  0  0  0  0  0  0  0  0  0  0  0
  -10.1823  206.1079  122.3808 P   0  0  2  0  0  0  0  0  0  0  0  0
   -9.5473  204.9221  122.9270 O   0  0  0  0  0  0  0  0  0  0  0  0
  -11.6599  206.0262  122.4968 O   0  0  0  0  0  0  0  0  0  0  0  0
  -11.9632  205.1666  122.1650 H   0  0  0  0  0  0  0  0  0  0  0  0
   -9.6641  207.5106  122.9199 O   0  0  0  0  0  0  0  0  0  0  0  0
   -8.3755  208.2900  122.4308 P   0  0  0  0  0  0  0  0  0  0  0  0
   -8.3288  208.5021  120.9785 O   0  0  0  0  0  0  0  0  0  0  0  0
   -8.2963  209.5790  123.1618 O   0  0  0  0  0  0  0  0  0  0  0  0
   -7.1602  207.5273  122.8562 O   0  0  0  0  0  0  0  0  0  0  0  0
   -7.5183  208.9825  120.7478 H   0  0  0  0  0  0  0  0  0  0  0  0
   -7.1872  207.3850  123.8154 H   0  0  0  0  0  0  0  0  0  0  0  0
  1 22  1  1  0  0  0
  1  3  1  0  0  0  0
  2  1  1  0  0  0  0
  3  4  1  6  0  0  0
  4  8  1  0  0  0  0
  5  6  1  6  0  0  0
  5  3  1  0  0  0  0
  6  9  1  0  0  0  0
  7 10  1  1  0  0  0
  7  2  1  0  0  0  0
  7  5  1  0  0  0  0
 11 10  1  0  0  0  0
 12 11  2  0  0  0  0
 13 19  1  0  0  0  0
 13 12  1  0  0  0  0
 14 13  2  0  0  0  0
 15 14  1  0  0  0  0
 15 20  1  0  0  0  0
 15 21  1  0  0  0  0
 16 14  1  0  0  0  0
 16 17  2  0  0  0  0
 17 18  1  0  0  0  0
 18 19  2  0  0  0  0
 19 10  1  0  0  0  0
 23 22  1  0  0  0  0
 23 24  1  0  0  0  0
 24 26  2  1  0  0  0
 24 25  1  0  0  0  0
 24 28  1  0  0  0  0
 25 27  1  0  0  0  0
 28 29  1  0  0  0  0
 29 30  2  1  0  0  0
 29 31  1  0  0  0  0
 29 33  1  0  0  0  0
 31 32  1  0  0  0  0
 34 33  1  0  0  0  0
 34 35  1  0  0  0  0
 35 38  1  0  0  0  0
 36 34  2  0  0  0  0
 37 34  1  0  0  0  0
 37 39  1  0  0  0  0
M  END
>  <minimizedAffinity>
-0.00036

$$$$
