
 OpenBabel07192212403D

 28 31  0  0  0  0  0  0  0  0999 V2000
  -13.9670  209.1225  115.5985 C   0  0  2  0  0  0  0  0  0  0  0  0
  -12.7779  209.9732  115.8367 C   0  0  0  0  0  0  0  0  0  0  0  0
  -14.9892  209.6850  116.5860 C   0  0  0  0  0  0  0  0  0  0  0  0
  -11.7097  209.8507  115.2367 O   0  0  0  0  0  0  0  0  0  0  0  0
  -13.0460  210.8482  116.7577 N   0  0  0  0  0  0  0  0  0  0  0  0
  -14.2912  210.7275  117.2254 C   0  0  0  0  0  0  0  0  0  0  0  0
  -16.3378  209.4074  116.9527 C   0  0  0  0  0  0  0  0  0  0  0  0
  -16.9489  210.2011  117.9769 C   0  0  0  0  0  0  0  0  0  0  0  0
  -16.2270  211.2453  118.6135 C   0  0  0  0  0  0  0  0  0  0  0  0
  -14.8849  211.5223  118.2373 C   0  0  0  0  0  0  0  0  0  0  0  0
  -12.4043  211.5240  117.0752 H   0  0  0  0  0  0  0  0  0  0  0  0
  -14.7056  207.0680  112.8495 C   0  0  0  0  0  0  0  0  0  0  0  0
  -13.8462  206.1042  113.4043 C   0  0  0  0  0  0  0  0  0  0  0  0
  -15.3834  206.8345  111.6230 C   0  0  0  0  0  0  0  0  0  0  0  0
  -14.7684  208.1544  113.6294 N   0  0  0  0  0  0  0  0  0  0  0  0
  -13.6018  204.8538  112.7709 C   0  0  0  0  0  0  0  0  0  0  0  0
  -13.3699  206.7598  114.6658 C   0  0  0  0  0  0  0  0  0  0  0  0
  -14.2733  204.6031  111.5369 C   0  0  0  0  0  0  0  0  0  0  0  0
  -15.1546  205.5834  110.9680 C   0  0  0  0  0  0  0  0  0  0  0  0
  -12.5932  206.2561  115.4512 O   0  0  0  0  0  0  0  0  0  0  0  0
  -14.0149  208.0883  114.7095 C   0  0  0  0  0  0  0  0  0  0  0  0
  -18.6263  209.8220  118.4110 S   0  0  0  0  0  0  0  0  0  0  0  0
  -19.4448  210.7382  117.5755 O   0  0  0  0  0  0  0  0  0  0  0  0
  -18.8339  210.1346  119.8082 O   0  0  0  0  0  0  0  0  0  0  0  0
  -18.8847  208.4767  117.9404 O   0  0  0  0  0  0  0  0  0  0  0  0
  -19.3072  210.5305  116.6380 H   0  0  0  0  0  0  0  0  0  0  0  0
  -18.6197  211.0674  119.9661 H   0  0  0  0  0  0  0  0  0  0  0  0
  -18.7005  208.4259  116.9894 H   0  0  0  0  0  0  0  0  0  0  0  0
  1  3  1  0  0  0  0
  1 21  1  1  0  0  0
  2  1  1  0  0  0  0
  3  7  1  0  0  0  0
  4  2  2  0  0  0  0
  5  2  1  0  0  0  0
  5  6  1  0  0  0  0
  5 11  1  0  0  0  0
  6  3  2  0  0  0  0
  8  7  2  0  0  0  0
  8 22  1  0  0  0  0
  9  8  1  0  0  0  0
 10  6  1  0  0  0  0
 10  9  2  0  0  0  0
 12 13  1  0  0  0  0
 13 16  2  0  0  0  0
 14 12  2  0  0  0  0
 14 19  1  0  0  0  0
 15 21  2  0  0  0  0
 15 12  1  0  0  0  0
 17 13  1  0  0  0  0
 17 20  2  0  0  0  0
 18 16  1  0  0  0  0
 19 18  2  0  0  0  0
 21 17  1  0  0  0  0
 22 25  1  0  0  0  0
 22 24  1  0  0  0  0
 23 22  1  0  0  0  0
 23 26  1  0  0  0  0
 24 27  1  0  0  0  0
 25 28  1  0  0  0  0
M  END
>  <minimizedAffinity>
-0.00009

$$$$
