
 OpenBabel07192212403D

 20 22  0  0  0  0  0  0  0  0999 V2000
  -13.3797  203.5156  115.8277 N   0  0  0  0  0  0  0  0  0  0  0  0
  -14.3107  202.7750  116.4153 C   0  0  1  0  0  0  0  0  0  0  0  0
  -14.2677  202.6214  117.7522 N   0  0  0  0  0  0  0  0  0  0  0  0
  -13.3311  203.2014  118.4922 C   0  0  0  0  0  0  0  0  0  0  0  0
  -12.3674  203.9344  117.8719 C   0  0  0  0  0  0  0  0  0  0  0  0
  -12.3761  204.0936  116.4887 C   0  0  0  0  0  0  0  0  0  0  0  0
  -11.6248  204.3475  118.8895 N   0  0  0  0  0  0  0  0  0  0  0  0
  -12.0034  203.8940  120.1329 C   0  0  0  0  0  0  0  0  0  0  0  0
  -13.1242  203.2089  119.8048 N   0  0  0  0  0  0  0  0  0  0  0  0
  -15.4059  202.1638  115.8978 N   0  0  0  0  0  0  0  0  0  0  0  0
  -16.0734  201.9726  116.6450 H   0  0  0  0  0  0  0  0  0  0  0  0
  -15.1292  201.2868  115.4565 H   0  0  0  0  0  0  0  0  0  0  0  0
  -11.3736  204.8796  115.9234 O   0  0  0  0  0  0  0  0  0  0  0  0
  -10.2859  204.0032  115.5019 C   0  0  0  0  0  0  0  0  0  0  0  0
   -9.0507  204.9885  115.5894 C   0  0  0  0  0  0  0  0  0  0  0  0
   -9.5860  206.2945  116.2676 C   0  0  0  0  0  0  0  0  0  0  0  0
   -8.3650  207.1523  116.6006 C   0  0  0  0  0  0  0  0  0  0  0  0
   -7.9926  206.5325  117.9683 C   0  0  0  0  0  0  0  0  0  0  0  0
   -7.2635  205.2776  117.3266 C   0  0  0  0  0  0  0  0  0  0  0  0
   -8.5389  204.4722  116.9393 C   0  0  0  0  0  0  0  0  0  0  0  0
  1  6  2  0  0  0  0
  2 10  1  1  0  0  0
  2  1  1  0  0  0  0
  3  4  2  0  0  0  0
  3  2  1  0  0  0  0
  4  5  1  0  0  0  0
  5  6  1  0  0  0  0
  6 13  1  0  0  0  0
  7  5  2  0  0  0  0
  8  7  1  0  0  0  0
  9  8  2  0  0  0  0
  9  4  1  0  0  0  0
 10 11  1  0  0  0  0
 10 12  1  0  0  0  0
 13 14  1  0  0  0  0
 14 15  1  0  0  0  0
 15 16  1  0  0  0  0
 15 20  1  0  0  0  0
 16 17  1  0  0  0  0
 17 18  1  0  0  0  0
 18 19  1  0  0  0  0
 20 19  1  0  0  0  0
M  END
>  <minimizedAffinity>
-0.00016

$$$$
