
 OpenBabel07192212403D

 19 21  0  0  0  0  0  0  0  0999 V2000
  -13.5629  205.8910  112.6012 N   0  0  0  0  0  0  0  0  0  0  0  0
  -18.7379  205.4976  113.4701 C   0  0  0  0  0  0  0  0  0  0  0  0
  -17.3684  205.8084  114.0176 N   0  0  0  0  0  0  0  0  0  0  0  0
  -16.1235  205.8095  113.3524 C   0  0  0  0  0  0  0  0  0  0  0  0
  -15.8818  205.5309  112.0366 N   0  0  0  0  0  0  0  0  0  0  0  0
  -14.5965  205.5905  111.7254 C   0  0  0  0  0  0  0  0  0  0  0  0
  -13.7894  206.1750  113.9402 C   0  0  0  0  0  0  0  0  0  0  0  0
  -15.1881  206.1348  114.3585 C   0  0  0  0  0  0  0  0  0  0  0  0
  -15.7805  206.3457  115.5636 N   0  0  0  0  0  0  0  0  0  0  0  0
  -17.0789  206.1440  115.3537 C   0  0  0  0  0  0  0  0  0  0  0  0
  -12.7257  206.4650  114.8058 N   0  0  0  0  0  0  0  0  0  0  0  0
  -12.1422  207.2405  114.6407 H   0  0  0  0  0  0  0  0  0  0  0  0
  -12.4993  205.5971  115.9549 C   0  0  0  0  0  0  0  0  0  0  0  0
  -12.5002  206.1472  117.2370 C   0  0  0  0  0  0  0  0  0  0  0  0
  -12.2957  205.3385  118.3556 C   0  0  0  0  0  0  0  0  0  0  0  0
  -12.0866  203.9663  118.2013 C   0  0  0  0  0  0  0  0  0  0  0  0
  -12.0844  203.4035  116.9200 C   0  0  0  0  0  0  0  0  0  0  0  0
  -11.8314  201.7153  116.7211 Cl  0  0  0  0  0  0  0  0  0  0  0  0
  -12.2912  204.2180  115.7986 C   0  0  0  0  0  0  0  0  0  0  0  0
  1  6  1  0  0  0  0
  3  2  1  0  0  0  0
  3  4  1  0  0  0  0
  4  5  1  0  0  0  0
  5  6  2  0  0  0  0
  7  1  2  0  0  0  0
  8  4  2  0  0  0  0
  8  7  1  0  0  0  0
  9  8  1  0  0  0  0
 10  9  2  0  0  0  0
 10  3  1  0  0  0  0
 11  7  1  0  0  0  0
 11 13  1  0  0  0  0
 11 12  1  0  0  0  0
 13 19  1  0  0  0  0
 14 13  2  0  0  0  0
 14 15  1  0  0  0  0
 15 16  2  0  0  0  0
 16 17  1  0  0  0  0
 17 18  1  0  0  0  0
 19 17  2  0  0  0  0
M  END
>  <minimizedAffinity>
0.00000

$$$$
