


 19 21  0  0  0  0  0  0  0  0999 V2000
  -14.7826  207.9446  113.1249 N   0  0  0  0  0  0  0  0  0  0  0  0
  -17.3621  203.5161  111.9310 C   0  0  0  0  0  0  0  0  0  0  0  0
  -17.0013  204.9290  111.5502 N   0  0  0  0  0  0  0  0  0  0  0  0
  -16.1719  205.8489  112.2274 C   0  0  0  0  0  0  0  0  0  0  0  0
  -15.4935  205.6541  113.3975 N   0  0  0  0  0  0  0  0  0  0  0  0
  -14.8225  206.7263  113.7882 C   0  0  0  0  0  0  0  0  0  0  0  0
  -15.4661  208.1607  111.9370 C   0  0  0  0  0  0  0  0  0  0  0  0
  -16.2267  207.0181  111.4381 C   0  0  0  0  0  0  0  0  0  0  0  0
  -17.0069  206.8596  110.3363 N   0  0  0  0  0  0  0  0  0  0  0  0
  -17.4692  205.6142  110.4130 C   0  0  0  0  0  0  0  0  0  0  0  0
  -15.4173  209.4048  111.2931 N   0  0  0  0  0  0  0  0  0  0  0  0
  -14.5602  209.7734  110.9790 H   0  0  0  0  0  0  0  0  0  0  0  0
  -16.6590  210.1429  111.0972 C   0  0  0  0  0  0  0  0  0  0  0  0
  -17.0395  210.5088  109.8057 C   0  0  0  0  0  0  0  0  0  0  0  0
  -18.2277  211.2074  109.5879 C   0  0  0  0  0  0  0  0  0  0  0  0
  -19.0493  211.5484  110.6645 C   0  0  0  0  0  0  0  0  0  0  0  0
  -18.6780  211.1856  111.9642 C   0  0  0  0  0  0  0  0  0  0  0  0
  -19.6848  211.5982  113.2944 Cl  0  0  0  0  0  0  0  0  0  0  0  0
  -17.4847  210.4833  112.1797 C   0  0  0  0  0  0  0  0  0  0  0  0
 10  9  2  0  0  0
 10  3  1  0  0  0
  9  8  1  0  0  0
  3  2  1  0  0  0
  3  4  1  0  0  0
  8  4  2  0  0  0
  8  7  1  0  0  0
 11  7  1  0  0  0
 11 13  1  0  0  0
  4  5  1  0  0  0
 14 13  2  0  0  0
 14 15  1  0  0  0
  7  1  2  0  0  0
 13 19  1  0  0  0
 15 16  2  0  0  0
  5  6  2  0  0  0
  1  6  1  0  0  0
 19 17  2  0  0  0
 16 17  1  0  0  0
 17 18  1  0  0  0
 11 12  1  0  0  0
M  END
> <minimizedAffinity>
0.00000

$$$$



 19 21  0  0  0  0  0  0  0  0999 V2000
  -13.5629  205.8910  112.6012 N   0  0  0  0  0  0  0  0  0  0  0  0
  -18.7379  205.4976  113.4701 C   0  0  0  0  0  0  0  0  0  0  0  0
  -17.3684  205.8084  114.0176 N   0  0  0  0  0  0  0  0  0  0  0  0
  -16.1235  205.8095  113.3524 C   0  0  0  0  0  0  0  0  0  0  0  0
  -15.8818  205.5309  112.0366 N   0  0  0  0  0  0  0  0  0  0  0  0
  -14.5965  205.5905  111.7254 C   0  0  0  0  0  0  0  0  0  0  0  0
  -13.7894  206.1750  113.9402 C   0  0  0  0  0  0  0  0  0  0  0  0
  -15.1881  206.1348  114.3585 C   0  0  0  0  0  0  0  0  0  0  0  0
  -15.7805  206.3457  115.5636 N   0  0  0  0  0  0  0  0  0  0  0  0
  -17.0789  206.1440  115.3537 C   0  0  0  0  0  0  0  0  0  0  0  0
  -12.7257  206.4650  114.8058 N   0  0  0  0  0  0  0  0  0  0  0  0
  -12.1422  207.2405  114.6407 H   0  0  0  0  0  0  0  0  0  0  0  0
  -12.4993  205.5971  115.9549 C   0  0  0  0  0  0  0  0  0  0  0  0
  -12.5002  206.1472  117.2370 C   0  0  0  0  0  0  0  0  0  0  0  0
  -12.2957  205.3385  118.3556 C   0  0  0  0  0  0  0  0  0  0  0  0
  -12.0866  203.9663  118.2013 C   0  0  0  0  0  0  0  0  0  0  0  0
  -12.0844  203.4035  116.9200 C   0  0  0  0  0  0  0  0  0  0  0  0
  -11.8314  201.7153  116.7211 Cl  0  0  0  0  0  0  0  0  0  0  0  0
  -12.2912  204.2180  115.7986 C   0  0  0  0  0  0  0  0  0  0  0  0
 10  9  2  0  0  0
 10  3  1  0  0  0
  9  8  1  0  0  0
  3  2  1  0  0  0
  3  4  1  0  0  0
  8  4  2  0  0  0
  8  7  1  0  0  0
 11  7  1  0  0  0
 11 13  1  0  0  0
  4  5  1  0  0  0
 14 13  2  0  0  0
 14 15  1  0  0  0
  7  1  2  0  0  0
 13 19  1  0  0  0
 15 16  2  0  0  0
  5  6  2  0  0  0
  1  6  1  0  0  0
 19 17  2  0  0  0
 16 17  1  0  0  0
 17 18  1  0  0  0
 11 12  1  0  0  0
M  END
> <minimizedAffinity>
0.00000

$$$$



 19 21  0  0  0  0  0  0  0  0999 V2000
  -12.3448  203.8876  118.6700 N   0  0  0  0  0  0  0  0  0  0  0  0
  -17.5869  204.2550  118.3941 C   0  0  0  0  0  0  0  0  0  0  0  0
  -16.2803  204.0316  117.6767 N   0  0  0  0  0  0  0  0  0  0  0  0
  -14.9716  203.9896  118.2040 C   0  0  0  0  0  0  0  0  0  0  0  0
  -14.5941  204.1376  119.5090 N   0  0  0  0  0  0  0  0  0  0  0  0
  -13.2824  204.0745  119.6758 C   0  0  0  0  0  0  0  0  0  0  0  0
  -12.7096  203.7369  117.3399 C   0  0  0  0  0  0  0  0  0  0  0  0
  -14.1453  203.7892  117.0771 C   0  0  0  0  0  0  0  0  0  0  0  0
  -14.8604  203.6895  115.9253 N   0  0  0  0  0  0  0  0  0  0  0  0
  -16.1311  203.8404  116.2901 C   0  0  0  0  0  0  0  0  0  0  0  0
  -11.7411  203.5600  116.3422 N   0  0  0  0  0  0  0  0  0  0  0  0
  -11.1350  202.7845  116.3638 H   0  0  0  0  0  0  0  0  0  0  0  0
  -11.6478  204.5454  115.2720 C   0  0  0  0  0  0  0  0  0  0  0  0
  -11.7795  204.1291  113.9469 C   0  0  0  0  0  0  0  0  0  0  0  0
  -11.7040  205.0521  112.9030 C   0  0  0  0  0  0  0  0  0  0  0  0
  -11.4945  206.4056  113.1762 C   0  0  0  0  0  0  0  0  0  0  0  0
  -11.3619  206.8346  114.5017 C   0  0  0  0  0  0  0  0  0  0  0  0
  -11.1074  208.4987  114.8471 Cl  0  0  0  0  0  0  0  0  0  0  0  0
  -11.4392  205.9055  115.5479 C   0  0  0  0  0  0  0  0  0  0  0  0
 10  9  2  0  0  0
 10  3  1  0  0  0
  9  8  1  0  0  0
  3  2  1  0  0  0
  3  4  1  0  0  0
  8  4  2  0  0  0
  8  7  1  0  0  0
 11  7  1  0  0  0
 11 13  1  0  0  0
  4  5  1  0  0  0
 14 13  2  0  0  0
 14 15  1  0  0  0
  7  1  2  0  0  0
 13 19  1  0  0  0
 15 16  2  0  0  0
  5  6  2  0  0  0
  1  6  1  0  0  0
 19 17  2  0  0  0
 16 17  1  0  0  0
 17 18  1  0  0  0
 11 12  1  0  0  0
M  END
> <minimizedAffinity>
0.00000

$$$$
