
 OpenBabel07192212403D

 24 26  0  0  0  0  0  0  0  0999 V2000
  -14.1189  201.3799  107.1972 N   0  0  0  0  0  0  0  0  0  0  0  0
  -15.1217  202.1665  106.6530 C   0  0  0  0  0  0  0  0  0  0  0  0
  -16.0323  202.8455  107.4577 N   0  0  0  0  0  0  0  0  0  0  0  0
  -16.0026  202.7377  108.8830 C   0  0  0  0  0  0  0  0  0  0  0  0
  -14.9259  201.8394  109.5428 C   0  0  0  0  0  0  0  0  0  0  0  0
  -13.9328  201.2050  108.6188 C   0  0  0  0  0  0  0  0  0  0  0  0
  -16.9681  203.4659  109.7153 C   0  0  0  0  0  0  0  0  0  0  0  0
  -16.9359  203.3636  111.1903 C   0  0  0  0  0  0  0  0  0  0  0  0
  -15.9527  202.4273  111.8451 C   0  0  0  0  0  0  0  0  0  0  0  0
  -14.9658  201.6731  111.0045 C   0  0  0  0  0  0  0  0  0  0  0  0
  -12.8404  200.4346  109.0923 N   0  0  0  0  0  0  0  0  0  0  0  0
  -12.8870  199.5031  108.7770 H   0  0  0  0  0  0  0  0  0  0  0  0
  -11.7092  200.6567  109.8948 C   0  0  0  0  0  0  0  0  0  0  0  0
  -11.2124  202.0513  109.8931 C   0  0  0  0  0  0  0  0  0  0  0  0
  -10.0150  202.4325  110.6715 C   0  0  0  0  0  0  0  0  0  0  0  0
   -9.3430  201.4445  111.5243 C   0  0  0  0  0  0  0  0  0  0  0  0
   -9.8141  200.0466  111.5482 C   0  0  0  0  0  0  0  0  0  0  0  0
  -10.9670  199.6467  110.7225 C   0  0  0  0  0  0  0  0  0  0  0  0
   -9.5072  203.7114  110.6028 O   0  0  0  0  0  0  0  0  0  0  0  0
   -8.7475  203.9412  111.1009 H   0  0  0  0  0  0  0  0  0  0  0  0
  -17.7609  204.1290  112.0529 O   0  0  0  0  0  0  0  0  0  0  0  0
  -17.5185  205.5004  112.3882 C   0  0  0  0  0  0  0  0  0  0  0  0
  -15.9925  202.3487  113.2709 O   0  0  0  0  0  0  0  0  0  0  0  0
  -14.9619  202.9309  114.0767 C   0  0  0  0  0  0  0  0  0  0  0  0
  1  6  2  0  0  0  0
  2  3  2  0  0  0  0
  2  1  1  0  0  0  0
  3  4  1  0  0  0  0
  4  7  2  0  0  0  0
  4  5  1  0  0  0  0
  5 10  2  0  0  0  0
  6  5  1  0  0  0  0
  6 11  1  0  0  0  0
  7  8  1  0  0  0  0
  8 21  1  0  0  0  0
  8  9  2  0  0  0  0
  9 23  1  0  0  0  0
 10  9  1  0  0  0  0
 11 13  1  0  0  0  0
 11 12  1  0  0  0  0
 13 14  1  0  0  0  0
 14 15  2  0  0  0  0
 15 19  1  0  0  0  0
 16 15  1  0  0  0  0
 17 16  2  0  0  0  0
 18 17  1  0  0  0  0
 18 13  2  0  0  0  0
 19 20  1  0  0  0  0
 22 21  1  0  0  0  0
 23 24  1  0  0  0  0
M  END
>  <minimizedAffinity>
-0.00008

$$$$
