


 22 23  0  0  0  0  0  0  0  0999 V2000
  -15.1188  206.8436  114.8737 N   0  0  0  0  0  0  0  0  0  0  0  0
  -15.2543  205.6373  115.4870 C   0  0  0  0  0  0  0  0  0  0  0  0
  -15.8833  205.5160  116.8368 C   0  0  0  0  0  0  0  0  0  0  0  0
  -15.9319  204.1716  117.3799 N   0  0  0  0  0  0  0  0  0  0  0  0
  -16.4571  204.0154  118.4949 O   0  0  0  0  0  0  0  0  0  0  0  0
  -16.2854  206.6503  117.4120 C   0  0  0  0  0  0  0  0  0  0  0  0
  -16.8279  206.6766  118.5938 N   0  0  0  0  0  0  0  0  0  0  0  0
  -16.1014  207.8903  116.6432 N   0  0  0  0  0  0  0  0  0  0  0  0
  -15.5582  208.0018  115.5095 C   0  0  0  0  0  0  0  0  0  0  0  0
  -15.3822  209.1298  114.8701 N   0  0  0  0  0  0  0  0  0  0  0  0
  -16.5049  203.1601  118.8746 H   0  0  0  0  0  0  0  0  0  0  0  0
  -17.1123  207.5337  118.9859 H   0  0  0  0  0  0  0  0  0  0  0  0
  -15.6756  209.9771  115.2767 H   0  0  0  0  0  0  0  0  0  0  0  0
  -14.9564  209.1313  113.9824 H   0  0  0  0  0  0  0  0  0  0  0  0
  -14.7671  204.5172  114.8100 O   0  0  0  0  0  0  0  0  0  0  0  0
  -13.3198  204.4485  114.7045 C   0  0  0  0  0  0  0  0  0  0  0  0
  -12.9317  203.1070  115.3319 C   0  0  0  0  0  0  0  0  0  0  0  0
  -12.4987  203.2421  116.8058 C   0  0  0  0  0  0  0  0  0  0  0  0
  -12.0155  201.8553  117.3255 C   0  0  0  0  0  0  0  0  0  0  0  0
  -13.1931  200.8305  117.1871 C   0  0  0  0  0  0  0  0  0  0  0  0
  -13.4706  200.6534  115.6682 C   0  0  0  0  0  0  0  0  0  0  0  0
  -14.0287  202.0202  115.1528 C   0  0  0  0  0  0  0  0  0  0  0  0
  7  6  2  0  0  0
  8  6  1  0  0  0
  8  9  2  0  0  0
 10  9  1  0  0  0
  6  3  1  0  0  0
  9  1  1  0  0  0
  3  4  2  0  0  0
  3  2  1  0  0  0
  5  4  1  0  0  0
  1  2  2  0  0  0
  2 15  1  0  0  0
 15 16  1  0  0  0
 16 17  1  0  0  0
 17 18  1  0  0  0
 17 22  1  0  0  0
 18 19  1  0  0  0
 22 21  1  0  0  0
 19 20  1  0  0  0
 21 20  1  0  0  0
  5 11  1  0  0  0
  7 12  1  0  0  0
 10 13  1  0  0  0
 10 14  1  0  0  0
M  END
> <minimizedAffinity>
-0.00040

$$$$



 22 23  0  0  0  0  0  0  0  0999 V2000
  -14.2935  203.2635  115.0606 N   0  0  0  0  0  0  0  0  0  0  0  0
  -14.6840  204.3468  114.3370 C   0  0  0  0  0  0  0  0  0  0  0  0
  -13.7840  204.9699  113.3200 C   0  0  0  0  0  0  0  0  0  0  0  0
  -14.3221  206.1375  112.6479 N   0  0  0  0  0  0  0  0  0  0  0  0
  -13.6174  206.6852  111.7836 O   0  0  0  0  0  0  0  0  0  0  0  0
  -12.5773  204.4206  113.1745 C   0  0  0  0  0  0  0  0  0  0  0  0
  -11.6977  204.8858  112.3369 N   0  0  0  0  0  0  0  0  0  0  0  0
  -12.2764  203.2419  114.0008 N   0  0  0  0  0  0  0  0  0  0  0  0
  -13.0258  202.7194  114.8715 C   0  0  0  0  0  0  0  0  0  0  0  0
  -12.7090  201.6883  115.6122 N   0  0  0  0  0  0  0  0  0  0  0  0
  -13.9348  207.4414  111.3304 H   0  0  0  0  0  0  0  0  0  0  0  0
  -10.8169  204.4533  112.2573 H   0  0  0  0  0  0  0  0  0  0  0  0
  -11.8243  201.2669  115.5168 H   0  0  0  0  0  0  0  0  0  0  0  0
  -13.3552  201.3339  116.2649 H   0  0  0  0  0  0  0  0  0  0  0  0
  -15.9557  204.8634  114.5942 O   0  0  0  0  0  0  0  0  0  0  0  0
  -16.1028  205.5096  115.8871 C   0  0  0  0  0  0  0  0  0  0  0  0
  -16.5851  206.9291  115.5772 C   0  0  0  0  0  0  0  0  0  0  0  0
  -15.4353  207.9565  115.5518 C   0  0  0  0  0  0  0  0  0  0  0  0
  -16.0283  209.3819  115.3440 C   0  0  0  0  0  0  0  0  0  0  0  0
  -16.8186  209.4033  113.9908 C   0  0  0  0  0  0  0  0  0  0  0  0
  -18.0324  208.4466  114.1537 C   0  0  0  0  0  0  0  0  0  0  0  0
  -17.4490  207.0018  114.2869 C   0  0  0  0  0  0  0  0  0  0  0  0
  7  6  2  0  0  0
  8  6  1  0  0  0
  8  9  2  0  0  0
 10  9  1  0  0  0
  6  3  1  0  0  0
  9  1  1  0  0  0
  3  4  2  0  0  0
  3  2  1  0  0  0
  5  4  1  0  0  0
  1  2  2  0  0  0
  2 15  1  0  0  0
 15 16  1  0  0  0
 16 17  1  0  0  0
 17 18  1  0  0  0
 17 22  1  0  0  0
 18 19  1  0  0  0
 22 21  1  0  0  0
 19 20  1  0  0  0
 21 20  1  0  0  0
  5 11  1  0  0  0
  7 12  1  0  0  0
 10 13  1  0  0  0
 10 14  1  0  0  0
M  END
> <minimizedAffinity>
-0.00035

$$$$



 22 23  0  0  0  0  0  0  0  0999 V2000
  -13.6599  202.1467  109.2956 N   0  0  0  0  0  0  0  0  0  0  0  0
  -14.0066  203.3691  108.8108 C   0  0  0  0  0  0  0  0  0  0  0  0
  -14.4951  203.5415  107.4094 C   0  0  0  0  0  0  0  0  0  0  0  0
  -14.7978  204.9063  107.0214 N   0  0  0  0  0  0  0  0  0  0  0  0
  -15.2200  205.1014  105.8694 O   0  0  0  0  0  0  0  0  0  0  0  0
  -14.5548  202.4407  106.6586 C   0  0  0  0  0  0  0  0  0  0  0  0
  -14.9435  202.4654  105.4176 N   0  0  0  0  0  0  0  0  0  0  0  0
  -14.1704  201.1741  107.2992 N   0  0  0  0  0  0  0  0  0  0  0  0
  -13.7434  201.0233  108.4772 C   0  0  0  0  0  0  0  0  0  0  0  0
  -13.3789  199.8815  109.0022 N   0  0  0  0  0  0  0  0  0  0  0  0
  -15.4251  205.9709  105.5866 H   0  0  0  0  0  0  0  0  0  0  0  0
  -14.9745  201.6318  104.8948 H   0  0  0  0  0  0  0  0  0  0  0  0
  -13.4192  199.0575  108.4650 H   0  0  0  0  0  0  0  0  0  0  0  0
  -13.0642  199.8464  109.9344 H   0  0  0  0  0  0  0  0  0  0  0  0
  -13.8725  204.4604  109.6720 O   0  0  0  0  0  0  0  0  0  0  0  0
  -12.5020  204.8274  109.9847 C   0  0  0  0  0  0  0  0  0  0  0  0
  -12.3730  206.2965  109.5741 C   0  0  0  0  0  0  0  0  0  0  0  0
  -11.7620  206.4707  108.1690 C   0  0  0  0  0  0  0  0  0  0  0  0
  -11.5634  207.9890  107.8827 C   0  0  0  0  0  0  0  0  0  0  0  0
  -12.9563  208.7019  107.9720 C   0  0  0  0  0  0  0  0  0  0  0  0
  -13.4319  208.5958  109.4477 C   0  0  0  0  0  0  0  0  0  0  0  0
  -13.7070  207.0809  109.7216 C   0  0  0  0  0  0  0  0  0  0  0  0
  7  6  2  0  0  0
  8  6  1  0  0  0
  8  9  2  0  0  0
 10  9  1  0  0  0
  6  3  1  0  0  0
  9  1  1  0  0  0
  3  4  2  0  0  0
  3  2  1  0  0  0
  5  4  1  0  0  0
  1  2  2  0  0  0
  2 15  1  0  0  0
 15 16  1  0  0  0
 16 17  1  0  0  0
 17 18  1  0  0  0
 17 22  1  0  0  0
 18 19  1  0  0  0
 22 21  1  0  0  0
 19 20  1  0  0  0
 21 20  1  0  0  0
  5 11  1  0  0  0
  7 12  1  0  0  0
 10 13  1  0  0  0
 10 14  1  0  0  0
M  END
> <minimizedAffinity>
-0.00035

$$$$
