


 39 41  0  0  0  0  0  0  0  0999 V2000
  -10.4491  205.7342  117.9064 C   0  0  0  0  0  0  0  0  0  0  0  0
  -10.9850  206.6843  116.9208 O   0  0  0  0  0  0  0  0  0  0  0  0
  -11.7120  204.9786  118.3272 C   0  0  0  0  0  0  0  0  0  0  0  0
  -11.5571  204.2196  119.5322 O   0  0  0  0  0  0  0  0  0  0  0  0
  -12.7383  206.1113  118.4505 C   0  0  0  0  0  0  0  0  0  0  0  0
  -12.9549  206.6438  119.7505 O   0  0  0  0  0  0  0  0  0  0  0  0
  -12.1914  207.1887  117.5131 C   0  0  0  0  0  0  0  0  0  0  0  0
  -11.2938  204.8105  120.2550 H   0  0  0  0  0  0  0  0  0  0  0  0
  -12.1278  207.0235  120.0862 H   0  0  0  0  0  0  0  0  0  0  0  0
  -13.2969  207.4947  116.6115 N   0  0  0  0  0  0  0  0  0  0  0  0
  -14.5897  207.6886  117.0159 C   0  0  0  0  0  0  0  0  0  0  0  0
  -15.4105  208.0544  116.0448 N   0  0  0  0  0  0  0  0  0  0  0  0
  -14.5829  208.1558  114.9294 C   0  0  0  0  0  0  0  0  0  0  0  0
  -14.8596  208.4923  113.5829 C   0  0  0  0  0  0  0  0  0  0  0  0
  -16.0963  208.8063  113.1687 N   0  0  0  0  0  0  0  0  0  0  0  0
  -13.8078  208.5051  112.7210 N   0  0  0  0  0  0  0  0  0  0  0  0
  -12.5814  208.1954  113.1835 C   0  0  0  0  0  0  0  0  0  0  0  0
  -12.2026  207.8663  114.4243 N   0  0  0  0  0  0  0  0  0  0  0  0
  -13.2621  207.8537  115.2676 C   0  0  0  0  0  0  0  0  0  0  0  0
  -16.2558  209.0359  112.2247 H   0  0  0  0  0  0  0  0  0  0  0  0
  -16.8444  208.8071  113.8086 H   0  0  0  0  0  0  0  0  0  0  0  0
   -9.2017  204.8832  117.5935 C   0  0  0  0  0  0  0  0  0  0  0  0
   -9.0241  204.4105  116.2318 O   0  0  0  0  0  0  0  0  0  0  0  0
   -9.3734  203.0965  115.5436 P   0  0  0  0  0  0  0  0  0  0  0  0
   -8.5051  201.9963  116.0845 O   0  0  0  0  0  0  0  0  0  0  0  0
   -9.4344  203.2346  114.0437 O   0  0  0  0  0  0  0  0  0  0  0  0
   -7.5784  202.2827  116.0772 H   0  0  0  0  0  0  0  0  0  0  0  0
  -11.0097  203.1284  115.3413 O   0  0  0  0  0  0  0  0  0  0  0  0
  -11.6742  204.3111  114.4162 P   0  0  0  0  0  0  0  0  0  0  0  0
  -12.1293  203.6971  113.1154 O   0  0  0  0  0  0  0  0  0  0  0  0
  -10.6948  205.4535  114.5344 O   0  0  0  0  0  0  0  0  0  0  0  0
   -9.8359  205.1815  114.1749 H   0  0  0  0  0  0  0  0  0  0  0  0
  -13.2474  204.4568  114.9465 O   0  0  0  0  0  0  0  0  0  0  0  0
  -14.8038  204.4011  114.3144 P   0  0  0  0  0  0  0  0  0  0  0  0
  -15.1454  202.9220  114.3272 O   0  0  0  0  0  0  0  0  0  0  0  0
  -14.6501  205.0606  112.9545 O   0  0  0  0  0  0  0  0  0  0  0  0
  -15.7316  205.1374  115.2659 O   0  0  0  0  0  0  0  0  0  0  0  0
  -14.0463  204.5351  112.4067 H   0  0  0  0  0  0  0  0  0  0  0  0
  -15.7781  204.6580  116.1078 H   0  0  0  0  0  0  0  0  0  0  0  0
 15 14  1  0  0  0
 16 14  1  0  0  0
 16 17  2  0  0  0
 14 13  2  0  0  0
 17 18  1  0  0  0
 13 19  1  0  0  0
 13 12  1  0  0  0
 18 19  2  0  0  0
 19 10  1  0  0  0
 12 11  2  0  0  0
 11 10  1  0  0  0
 10  7  1  0  0  0
  7  5  1  0  0  0
  7  2  1  0  0  0
  6  5  1  0  0  0
  5  3  1  0  0  0
  2  1  1  0  0  0
  3  1  1  0  0  0
  3  4  1  0  0  0
  1 22  1  0  0  0
 26 24  2  0  0  0
 23 22  1  0  0  0
 23 24  1  0  0  0
 24 28  1  0  0  0
 24 25  1  0  0  0
 28 29  1  0  0  0
 29 30  2  0  0  0
 29 31  1  0  0  0
 29 33  1  0  0  0
 35 34  2  0  0  0
 33 34  1  0  0  0
 34 37  1  0  0  0
 34 36  1  0  0  0
 36 38  1  0  0  0
 37 39  1  0  0  0
 31 32  1  0  0  0
 25 27  1  0  0  0
  4  8  1  0  0  0
  6  9  1  0  0  0
 15 20  1  0  0  0
 15 21  1  0  0  0
M  END
> <minimizedAffinity>
-0.00097

$$$$



 39 41  0  0  0  0  0  0  0  0999 V2000
  -17.1543  203.0089  117.4664 C   0  0  0  0  0  0  0  0  0  0  0  0
  -17.7411  203.2344  116.1375 O   0  0  0  0  0  0  0  0  0  0  0  0
  -16.5146  201.6293  117.2928 C   0  0  0  0  0  0  0  0  0  0  0  0
  -16.1618  200.9960  118.5284 O   0  0  0  0  0  0  0  0  0  0  0  0
  -17.5922  200.8715  116.5079 C   0  0  0  0  0  0  0  0  0  0  0  0
  -18.4844  200.0601  117.2602 O   0  0  0  0  0  0  0  0  0  0  0  0
  -18.3554  201.9847  115.7888 C   0  0  0  0  0  0  0  0  0  0  0  0
  -16.9531  200.9036  119.0819 H   0  0  0  0  0  0  0  0  0  0  0  0
  -18.9786  200.6151  117.8836 H   0  0  0  0  0  0  0  0  0  0  0  0
  -18.3327  201.6030  114.3808 N   0  0  0  0  0  0  0  0  0  0  0  0
  -18.5906  200.3402  113.9208 C   0  0  0  0  0  0  0  0  0  0  0  0
  -18.6147  200.2403  112.6017 N   0  0  0  0  0  0  0  0  0  0  0  0
  -18.4058  201.5458  112.1646 C   0  0  0  0  0  0  0  0  0  0  0  0
  -18.3092  202.0961  110.8643 C   0  0  0  0  0  0  0  0  0  0  0  0
  -18.4363  201.3418  109.7622 N   0  0  0  0  0  0  0  0  0  0  0  0
  -18.1009  203.4371  110.7753 N   0  0  0  0  0  0  0  0  0  0  0  0
  -17.9921  204.1571  111.9081 C   0  0  0  0  0  0  0  0  0  0  0  0
  -18.0676  203.7498  113.1808 N   0  0  0  0  0  0  0  0  0  0  0  0
  -18.2702  202.4128  113.2510 C   0  0  0  0  0  0  0  0  0  0  0  0
  -18.3640  201.7553  108.8717 H   0  0  0  0  0  0  0  0  0  0  0  0
  -18.6020  200.3748  109.8440 H   0  0  0  0  0  0  0  0  0  0  0  0
  -16.2960  204.0921  118.1505 C   0  0  0  0  0  0  0  0  0  0  0  0
  -15.4442  204.9165  117.3113 O   0  0  0  0  0  0  0  0  0  0  0  0
  -13.9716  204.8227  116.9309 P   0  0  0  0  0  0  0  0  0  0  0  0
  -13.1195  205.0962  118.1375 O   0  0  0  0  0  0  0  0  0  0  0  0
  -13.6514  205.6081  115.6847 O   0  0  0  0  0  0  0  0  0  0  0  0
  -13.4272  205.9061  118.5738 H   0  0  0  0  0  0  0  0  0  0  0  0
  -13.8764  203.5833  115.8473 O   0  0  0  0  0  0  0  0  0  0  0  0
  -14.7001  203.6990  114.4316 P   0  0  0  0  0  0  0  0  0  0  0  0
  -13.7069  203.9470  113.3232 O   0  0  0  0  0  0  0  0  0  0  0  0
  -15.8633  204.6012  114.7647 O   0  0  0  0  0  0  0  0  0  0  0  0
  -15.5305  205.4705  115.0376 H   0  0  0  0  0  0  0  0  0  0  0  0
  -14.9354  202.1284  113.9264 O   0  0  0  0  0  0  0  0  0  0  0  0
  -14.6343  201.1781  112.5731 P   0  0  0  0  0  0  0  0  0  0  0  0
  -13.2172  200.6790  112.7911 O   0  0  0  0  0  0  0  0  0  0  0  0
  -14.8558  202.1393  111.4177 O   0  0  0  0  0  0  0  0  0  0  0  0
  -15.5901  199.9975  112.5972 O   0  0  0  0  0  0  0  0  0  0  0  0
  -14.2112  202.8622  111.4703 H   0  0  0  0  0  0  0  0  0  0  0  0
  -15.3871  199.4325  113.3591 H   0  0  0  0  0  0  0  0  0  0  0  0
 15 14  1  0  0  0
 16 14  1  0  0  0
 16 17  2  0  0  0
 14 13  2  0  0  0
 17 18  1  0  0  0
 13 19  1  0  0  0
 13 12  1  0  0  0
 18 19  2  0  0  0
 19 10  1  0  0  0
 12 11  2  0  0  0
 11 10  1  0  0  0
 10  7  1  0  0  0
  7  5  1  0  0  0
  7  2  1  0  0  0
  6  5  1  0  0  0
  5  3  1  0  0  0
  2  1  1  0  0  0
  3  1  1  0  0  0
  3  4  1  0  0  0
  1 22  1  0  0  0
 26 24  2  0  0  0
 23 22  1  0  0  0
 23 24  1  0  0  0
 24 28  1  0  0  0
 24 25  1  0  0  0
 28 29  1  0  0  0
 29 30  2  0  0  0
 29 31  1  0  0  0
 29 33  1  0  0  0
 35 34  2  0  0  0
 33 34  1  0  0  0
 34 37  1  0  0  0
 34 36  1  0  0  0
 36 38  1  0  0  0
 37 39  1  0  0  0
 31 32  1  0  0  0
 25 27  1  0  0  0
  4  8  1  0  0  0
  6  9  1  0  0  0
 15 20  1  0  0  0
 15 21  1  0  0  0
M  END
> <minimizedAffinity>
-0.00076

$$$$



 39 41  0  0  0  0  0  0  0  0999 V2000
  -14.3607  205.0618  118.5606 C   0  0  0  0  0  0  0  0  0  0  0  0
  -12.9096  204.8483  118.4618 O   0  0  0  0  0  0  0  0  0  0  0  0
  -14.4573  206.5862  118.4619 C   0  0  0  0  0  0  0  0  0  0  0  0
  -15.7244  207.1131  118.8732 O   0  0  0  0  0  0  0  0  0  0  0  0
  -13.2932  207.0403  119.3509 C   0  0  0  0  0  0  0  0  0  0  0  0
  -13.6058  207.3817  120.6948 O   0  0  0  0  0  0  0  0  0  0  0  0
  -12.3307  205.8527  119.3085 C   0  0  0  0  0  0  0  0  0  0  0  0
  -15.9020  206.8496  119.7897 H   0  0  0  0  0  0  0  0  0  0  0  0
  -13.9738  206.6070  121.1479 H   0  0  0  0  0  0  0  0  0  0  0  0
  -11.0547  206.4216  118.8880 N   0  0  0  0  0  0  0  0  0  0  0  0
  -10.5186  207.5723  119.3991 C   0  0  0  0  0  0  0  0  0  0  0  0
   -9.3066  207.8507  118.9472 N   0  0  0  0  0  0  0  0  0  0  0  0
   -9.0059  206.7755  118.1150 C   0  0  0  0  0  0  0  0  0  0  0  0
   -7.8664  206.4892  117.3260 C   0  0  0  0  0  0  0  0  0  0  0  0
   -6.8040  207.3074  117.2891 N   0  0  0  0  0  0  0  0  0  0  0  0
   -7.8827  205.3297  116.6156 N   0  0  0  0  0  0  0  0  0  0  0  0
   -8.9654  204.5324  116.6926 C   0  0  0  0  0  0  0  0  0  0  0  0
  -10.0897  204.6973  117.3999 N   0  0  0  0  0  0  0  0  0  0  0  0
  -10.0586  205.8579  118.0967 C   0  0  0  0  0  0  0  0  0  0  0  0
   -6.0264  207.0796  116.7298 H   0  0  0  0  0  0  0  0  0  0  0  0
   -6.8018  208.1357  117.8212 H   0  0  0  0  0  0  0  0  0  0  0  0
  -15.3447  204.2457  117.6981 C   0  0  0  0  0  0  0  0  0  0  0  0
  -14.9382  203.8951  116.3486 O   0  0  0  0  0  0  0  0  0  0  0  0
  -15.2028  204.5388  114.9930 P   0  0  0  0  0  0  0  0  0  0  0  0
  -16.6555  204.3934  114.6394 O   0  0  0  0  0  0  0  0  0  0  0  0
  -14.2058  204.1046  113.9490 O   0  0  0  0  0  0  0  0  0  0  0  0
  -16.9288  203.4716  114.7677 H   0  0  0  0  0  0  0  0  0  0  0  0
  -14.2501  205.8843  114.9526 O   0  0  0  0  0  0  0  0  0  0  0  0
  -12.6209  205.7091  115.0570 P   0  0  0  0  0  0  0  0  0  0  0  0
  -12.0259  205.9813  113.6974 O   0  0  0  0  0  0  0  0  0  0  0  0
  -12.4457  204.4270  115.8338 O   0  0  0  0  0  0  0  0  0  0  0  0
  -12.8366  203.6916  115.3364 H   0  0  0  0  0  0  0  0  0  0  0  0
  -12.0557  207.1637  115.6420 O   0  0  0  0  0  0  0  0  0  0  0  0
  -10.9343  208.3437  115.2234 P   0  0  0  0  0  0  0  0  0  0  0  0
  -11.7074  209.2626  114.2946 O   0  0  0  0  0  0  0  0  0  0  0  0
   -9.7988  207.5417  114.6104 O   0  0  0  0  0  0  0  0  0  0  0  0
  -10.5537  209.1072  116.4805 O   0  0  0  0  0  0  0  0  0  0  0  0
  -10.1176  207.0849  113.8163 H   0  0  0  0  0  0  0  0  0  0  0  0
  -11.3264  209.5917  116.8108 H   0  0  0  0  0  0  0  0  0  0  0  0
 15 14  1  0  0  0
 16 14  1  0  0  0
 16 17  2  0  0  0
 14 13  2  0  0  0
 17 18  1  0  0  0
 13 19  1  0  0  0
 13 12  1  0  0  0
 18 19  2  0  0  0
 19 10  1  0  0  0
 12 11  2  0  0  0
 11 10  1  0  0  0
 10  7  1  0  0  0
  7  5  1  0  0  0
  7  2  1  0  0  0
  6  5  1  0  0  0
  5  3  1  0  0  0
  2  1  1  0  0  0
  3  1  1  0  0  0
  3  4  1  0  0  0
  1 22  1  0  0  0
 26 24  2  0  0  0
 23 22  1  0  0  0
 23 24  1  0  0  0
 24 28  1  0  0  0
 24 25  1  0  0  0
 28 29  1  0  0  0
 29 30  2  0  0  0
 29 31  1  0  0  0
 29 33  1  0  0  0
 35 34  2  0  0  0
 33 34  1  0  0  0
 34 37  1  0  0  0
 34 36  1  0  0  0
 36 38  1  0  0  0
 37 39  1  0  0  0
 31 32  1  0  0  0
 25 27  1  0  0  0
  4  8  1  0  0  0
  6  9  1  0  0  0
 15 20  1  0  0  0
 15 21  1  0  0  0
M  END
> <minimizedAffinity>
-0.00070

$$$$
