
 OpenBabel07192212403D

 39 41  0  0  0  0  0  0  0  0999 V2000
  -17.1543  203.0089  117.4664 C   0  0  1  0  0  0  0  0  0  0  0  0
  -17.7411  203.2344  116.1375 O   0  0  0  0  0  0  0  0  0  0  0  0
  -16.5146  201.6293  117.2928 C   0  0  1  0  0  0  0  0  0  0  0  0
  -16.1618  200.9960  118.5284 O   0  0  0  0  0  0  0  0  0  0  0  0
  -17.5922  200.8715  116.5079 C   0  0  1  0  0  0  0  0  0  0  0  0
  -18.4844  200.0601  117.2602 O   0  0  0  0  0  0  0  0  0  0  0  0
  -18.3554  201.9847  115.7888 C   0  0  2  0  0  0  0  0  0  0  0  0
  -16.9531  200.9036  119.0819 H   0  0  0  0  0  0  0  0  0  0  0  0
  -18.9786  200.6151  117.8836 H   0  0  0  0  0  0  0  0  0  0  0  0
  -18.3327  201.6030  114.3808 N   0  0  0  0  0  0  0  0  0  0  0  0
  -18.5906  200.3402  113.9208 C   0  0  0  0  0  0  0  0  0  0  0  0
  -18.6147  200.2403  112.6017 N   0  0  0  0  0  0  0  0  0  0  0  0
  -18.4058  201.5458  112.1646 C   0  0  0  0  0  0  0  0  0  0  0  0
  -18.3092  202.0961  110.8643 C   0  0  0  0  0  0  0  0  0  0  0  0
  -18.4363  201.3418  109.7622 N   0  0  0  0  0  0  0  0  0  0  0  0
  -18.1009  203.4371  110.7753 N   0  0  0  0  0  0  0  0  0  0  0  0
  -17.9921  204.1571  111.9081 C   0  0  0  0  0  0  0  0  0  0  0  0
  -18.0676  203.7498  113.1808 N   0  0  0  0  0  0  0  0  0  0  0  0
  -18.2702  202.4128  113.2510 C   0  0  0  0  0  0  0  0  0  0  0  0
  -18.3640  201.7553  108.8717 H   0  0  0  0  0  0  0  0  0  0  0  0
  -18.6020  200.3748  109.8440 H   0  0  0  0  0  0  0  0  0  0  0  0
  -16.2960  204.0921  118.1505 C   0  0  0  0  0  0  0  0  0  0  0  0
  -15.4442  204.9165  117.3113 O   0  0  0  0  0  0  0  0  0  0  0  0
  -13.9716  204.8227  116.9309 P   0  0  2  0  0  0  0  0  0  0  0  0
  -13.1195  205.0962  118.1375 O   0  0  0  0  0  0  0  0  0  0  0  0
  -13.6514  205.6081  115.6847 O   0  0  0  0  0  0  0  0  0  0  0  0
  -13.4272  205.9061  118.5738 H   0  0  0  0  0  0  0  0  0  0  0  0
  -13.8764  203.5833  115.8473 O   0  0  0  0  0  0  0  0  0  0  0  0
  -14.7001  203.6990  114.4316 P   0  0  2  0  0  0  0  0  0  0  0  0
  -13.7069  203.9470  113.3232 O   0  0  0  0  0  0  0  0  0  0  0  0
  -15.8633  204.6012  114.7647 O   0  0  0  0  0  0  0  0  0  0  0  0
  -15.5305  205.4705  115.0376 H   0  0  0  0  0  0  0  0  0  0  0  0
  -14.9354  202.1284  113.9264 O   0  0  0  0  0  0  0  0  0  0  0  0
  -14.6343  201.1781  112.5731 P   0  0  0  0  0  0  0  0  0  0  0  0
  -13.2172  200.6790  112.7911 O   0  0  0  0  0  0  0  0  0  0  0  0
  -14.8558  202.1393  111.4177 O   0  0  0  0  0  0  0  0  0  0  0  0
  -15.5901  199.9975  112.5972 O   0  0  0  0  0  0  0  0  0  0  0  0
  -14.2112  202.8622  111.4703 H   0  0  0  0  0  0  0  0  0  0  0  0
  -15.3871  199.4325  113.3591 H   0  0  0  0  0  0  0  0  0  0  0  0
  1 22  1  6  0  0  0
  2  1  1  0  0  0  0
  3  1  1  0  0  0  0
  3  4  1  1  0  0  0
  4  8  1  0  0  0  0
  5  6  1  1  0  0  0
  5  3  1  0  0  0  0
  6  9  1  0  0  0  0
  7 10  1  6  0  0  0
  7  5  1  0  0  0  0
  7  2  1  0  0  0  0
 11 10  1  0  0  0  0
 12 11  2  0  0  0  0
 13 19  1  0  0  0  0
 13 12  1  0  0  0  0
 14 13  2  0  0  0  0
 15 14  1  0  0  0  0
 15 20  1  0  0  0  0
 15 21  1  0  0  0  0
 16 14  1  0  0  0  0
 16 17  2  0  0  0  0
 17 18  1  0  0  0  0
 18 19  2  0  0  0  0
 19 10  1  0  0  0  0
 23 22  1  0  0  0  0
 23 24  1  0  0  0  0
 24 26  2  6  0  0  0
 24 28  1  0  0  0  0
 24 25  1  0  0  0  0
 25 27  1  0  0  0  0
 28 29  1  0  0  0  0
 29 30  2  6  0  0  0
 29 31  1  0  0  0  0
 29 33  1  0  0  0  0
 31 32  1  0  0  0  0
 33 34  1  0  0  0  0
 34 37  1  0  0  0  0
 34 36  1  0  0  0  0
 35 34  2  0  0  0  0
 36 38  1  0  0  0  0
 37 39  1  0  0  0  0
M  END
>  <minimizedAffinity>
-0.00076

$$$$
