
 OpenBabel07192212403D

 36 43  0  0  0  0  0  0  0  0999 V2000
   -9.2141  204.0112  122.6861 O   0  0  0  0  0  0  0  0  0  0  0  0
   -9.7152  203.1296  121.6934 C   0  0  2  0  0  0  0  0  0  0  0  0
   -9.6654  203.7614  120.2787 C   0  0  0  0  0  0  0  0  0  0  0  0
   -9.1611  205.2032  120.3758 C   0  0  2  0  0  0  0  0  0  0  0  0
  -10.0314  205.9882  121.3994 C   0  0  2  0  0  0  0  0  0  0  0  0
   -9.6576  205.3541  122.7811 C   0  0  2  0  0  0  0  0  0  0  0  0
   -8.4568  206.1166  123.3089 C   0  0  0  0  0  0  0  0  0  0  0  0
  -10.7816  205.4244  123.7553 N   0  0  0  0  0  0  0  0  0  0  0  0
  -11.7090  204.3512  123.8033 C   0  0  0  0  0  0  0  0  0  0  0  0
  -11.8104  203.2063  123.1219 C   0  0  0  0  0  0  0  0  0  0  0  0
  -12.8768  202.2797  123.3342 C   0  0  0  0  0  0  0  0  0  0  0  0
  -13.8314  202.6818  124.3806 C   0  0  0  0  0  0  0  0  0  0  0  0
  -13.7256  203.8035  125.0445 C   0  0  0  0  0  0  0  0  0  0  0  0
  -12.6811  204.7281  124.8084 C   0  0  0  0  0  0  0  0  0  0  0  0
  -12.3037  205.9787  125.3460 C   0  0  0  0  0  0  0  0  0  0  0  0
  -11.1189  206.4222  124.6814 C   0  0  0  0  0  0  0  0  0  0  0  0
  -10.5593  207.6182  125.0098 C   0  0  0  0  0  0  0  0  0  0  0  0
  -11.1182  208.3942  125.9809 C   0  0  0  0  0  0  0  0  0  0  0  0
  -12.3075  207.9894  126.6570 C   0  0  0  0  0  0  0  0  0  0  0  0
  -12.8701  206.7853  126.3044 C   0  0  0  0  0  0  0  0  0  0  0  0
  -14.8912  203.9574  126.0391 C   0  0  0  0  0  0  0  0  0  0  0  0
  -15.5813  202.7156  125.7566 N   0  0  0  0  0  0  0  0  0  0  0  0
  -15.0519  201.9272  124.8095 C   0  0  0  0  0  0  0  0  0  0  0  0
  -15.4631  200.8550  124.4107 O   0  0  0  0  0  0  0  0  0  0  0  0
  -12.7290  201.2055  122.4354 C   0  0  0  0  0  0  0  0  0  0  0  0
  -11.5594  201.4793  121.6688 C   0  0  0  0  0  0  0  0  0  0  0  0
  -11.0660  200.5970  120.7038 C   0  0  0  0  0  0  0  0  0  0  0  0
  -11.7752  199.4377  120.4867 C   0  0  0  0  0  0  0  0  0  0  0  0
  -12.9441  199.1603  121.2330 C   0  0  0  0  0  0  0  0  0  0  0  0
  -13.3883  200.0214  122.1920 C   0  0  0  0  0  0  0  0  0  0  0  0
  -11.0509  202.6700  122.0562 N   0  0  0  0  0  0  0  0  0  0  0  0
   -9.2455  205.8594  118.9511 N   0  0  0  0  0  0  0  0  0  0  0  0
   -8.6970  207.2441  118.9846 C   0  0  0  0  0  0  0  0  0  0  0  0
  -10.2203  205.8910  118.6527 H   0  0  0  0  0  0  0  0  0  0  0  0
  -11.4029  205.6807  121.0790 O   0  0  0  0  0  0  0  0  0  0  0  0
  -12.1706  206.8531  120.8902 C   0  0  0  0  0  0  0  0  0  0  0  0
  1  6  1  0  0  0  0
  2  1  1  0  0  0  0
  2  3  1  6  0  0  0
  3  4  1  0  0  0  0
  4 32  1  6  0  0  0
  5 35  1  6  0  0  0
  5  4  1  0  0  0  0
  6  5  1  0  0  0  0
  6  7  1  1  0  0  0
  8  6  1  0  0  0  0
  9  8  1  0  0  0  0
 10  9  1  0  0  0  0
 10 31  1  0  0  0  0
 11 25  1  0  0  0  0
 11 10  2  0  0  0  0
 12 13  2  0  0  0  0
 12 11  1  0  0  0  0
 13 14  1  0  0  0  0
 14 15  1  0  0  0  0
 14  9  2  0  0  0  0
 15 16  1  0  0  0  0
 16  8  1  0  0  0  0
 16 17  2  0  0  0  0
 18 17  1  0  0  0  0
 19 18  2  0  0  0  0
 20 15  2  0  0  0  0
 20 19  1  0  0  0  0
 21 13  1  0  0  0  0
 22 23  1  0  0  0  0
 22 21  2  0  0  0  0
 23 12  1  0  0  0  0
 24 23  2  0  0  0  0
 25 26  1  0  0  0  0
 26 27  2  0  0  0  0
 26 31  1  0  0  0  0
 28 27  1  0  0  0  0
 29 28  2  0  0  0  0
 30 29  1  0  0  0  0
 30 25  2  0  0  0  0
 31  2  1  0  0  0  0
 32 33  1  0  0  0  0
 32 34  1  0  0  0  0
 36 35  1  0  0  0  0
M  END
>  <minimizedAffinity>
-0.00004

$$$$
