
 OpenBabel07192212403D

 22 23  0  0  0  0  0  0  0  0999 V2000
  -13.6599  202.1467  109.2956 N   0  0  0  0  0  0  0  0  0  0  0  0
  -14.0066  203.3691  108.8108 C   0  0  0  0  0  0  0  0  0  0  0  0
  -14.4951  203.5415  107.4094 C   0  0  0  0  0  0  0  0  0  0  0  0
  -14.7978  204.9063  107.0214 N   0  0  0  0  0  0  0  0  0  0  0  0
  -15.2200  205.1014  105.8694 O   0  0  0  0  0  0  0  0  0  0  0  0
  -14.5548  202.4407  106.6586 C   0  0  0  0  0  0  0  0  0  0  0  0
  -14.9435  202.4654  105.4176 N   0  0  0  0  0  0  0  0  0  0  0  0
  -14.1704  201.1741  107.2992 N   0  0  0  0  0  0  0  0  0  0  0  0
  -13.7434  201.0233  108.4772 C   0  0  0  0  0  0  0  0  0  0  0  0
  -13.3789  199.8815  109.0022 N   0  0  0  0  0  0  0  0  0  0  0  0
  -15.4251  205.9709  105.5866 H   0  0  0  0  0  0  0  0  0  0  0  0
  -14.9745  201.6318  104.8948 H   0  0  0  0  0  0  0  0  0  0  0  0
  -13.4192  199.0575  108.4650 H   0  0  0  0  0  0  0  0  0  0  0  0
  -13.0642  199.8464  109.9344 H   0  0  0  0  0  0  0  0  0  0  0  0
  -13.8725  204.4604  109.6720 O   0  0  0  0  0  0  0  0  0  0  0  0
  -12.5020  204.8274  109.9847 C   0  0  0  0  0  0  0  0  0  0  0  0
  -12.3730  206.2965  109.5741 C   0  0  0  0  0  0  0  0  0  0  0  0
  -11.7620  206.4707  108.1690 C   0  0  0  0  0  0  0  0  0  0  0  0
  -11.5634  207.9890  107.8827 C   0  0  0  0  0  0  0  0  0  0  0  0
  -12.9563  208.7019  107.9720 C   0  0  0  0  0  0  0  0  0  0  0  0
  -13.4319  208.5958  109.4477 C   0  0  0  0  0  0  0  0  0  0  0  0
  -13.7070  207.0809  109.7216 C   0  0  0  0  0  0  0  0  0  0  0  0
  1  2  2  0  0  0  0
  2 15  1  0  0  0  0
  3  4  2  0  0  0  0
  3  2  1  0  0  0  0
  5  4  1  0  0  0  0
  5 11  1  0  0  0  0
  6  3  1  0  0  0  0
  7  6  2  0  0  0  0
  7 12  1  0  0  0  0
  8  6  1  0  0  0  0
  8  9  2  0  0  0  0
  9  1  1  0  0  0  0
 10  9  1  0  0  0  0
 10 13  1  0  0  0  0
 10 14  1  0  0  0  0
 15 16  1  0  0  0  0
 16 17  1  0  0  0  0
 17 18  1  0  0  0  0
 17 22  1  0  0  0  0
 18 19  1  0  0  0  0
 19 20  1  0  0  0  0
 21 20  1  0  0  0  0
 22 21  1  0  0  0  0
M  END
>  <minimizedAffinity>
-0.00035

$$$$
