
 OpenBabel07192212403D

 18 19  0  0  0  0  0  0  0  0999 V2000
  -10.5277  207.6109  112.9670 C   0  0  0  0  0  0  0  0  0  0  0  0
  -10.0790  208.4323  112.1707 O   0  0  0  0  0  0  0  0  0  0  0  0
  -11.8666  207.3481  113.1487 N   0  0  0  0  0  0  0  0  0  0  0  0
  -12.1276  206.7037  113.8457 H   0  0  0  0  0  0  0  0  0  0  0  0
   -6.8012  204.4846  116.7877 Br  0  0  0  0  0  0  0  0  0  0  0  0
   -7.9072  205.4131  115.5714 C   0  0  0  0  0  0  0  0  0  0  0  0
   -7.3599  206.3918  114.7406 C   0  0  0  0  0  0  0  0  0  0  0  0
   -8.1832  207.1068  113.8612 C   0  0  0  0  0  0  0  0  0  0  0  0
   -9.5608  206.8511  113.8199 C   0  0  0  0  0  0  0  0  0  0  0  0
  -10.0871  205.8392  114.6408 C   0  0  0  0  0  0  0  0  0  0  0  0
   -9.2669  205.1241  115.5157 C   0  0  0  0  0  0  0  0  0  0  0  0
  -12.8559  207.9424  112.4036 C   0  0  0  0  0  0  0  0  0  0  0  0
  -13.3659  209.1091  112.8038 N   0  0  0  0  0  0  0  0  0  0  0  0
  -14.1843  209.4618  111.7995 N   0  0  0  0  0  0  0  0  0  0  0  0
  -14.3514  208.4840  110.8572 C   0  0  0  0  0  0  0  0  0  0  0  0
  -13.4670  207.4936  111.2114 C   0  0  0  0  0  0  0  0  0  0  0  0
  -15.3007  208.6015  109.7355 C   0  0  0  0  0  0  0  0  0  0  0  0
  -14.6229  210.3415  111.7461 H   0  0  0  0  0  0  0  0  0  0  0  0
  1  2  2  0  0  0  0
  1  3  1  0  0  0  0
  3 12  1  0  0  0  0
  3  4  1  0  0  0  0
  5  6  1  0  0  0  0
  6  7  1  0  0  0  0
  6 11  2  0  0  0  0
  7  8  2  0  0  0  0
  8  9  1  0  0  0  0
  9 10  2  0  0  0  0
  9  1  1  0  0  0  0
 10 11  1  0  0  0  0
 12 13  2  0  0  0  0
 12 16  1  0  0  0  0
 13 14  1  0  0  0  0
 14 15  1  0  0  0  0
 14 18  1  0  0  0  0
 15 16  2  0  0  0  0
 15 17  1  0  0  0  0
M  END
>  <minimizedAffinity>
-0.00006

$$$$
