
 OpenBabel07192212403D

 21 22  0  0  0  0  0  0  0  0999 V2000
  -13.3580  206.9509  119.7305 N   0  0  0  0  0  0  0  0  0  0  0  0
  -12.8006  207.7627  119.4648 H   0  0  0  0  0  0  0  0  0  0  0  0
  -12.3058  205.6502  119.8746 S   0  0  0  0  0  0  0  0  0  0  0  0
  -12.1952  205.3766  121.2901 O   0  0  0  0  0  0  0  0  0  0  0  0
  -12.7288  204.6335  118.9368 O   0  0  0  0  0  0  0  0  0  0  0  0
  -10.7409  206.3028  119.3429 C   0  0  0  0  0  0  0  0  0  0  0  0
  -10.5464  206.6233  117.9947 C   0  0  0  0  0  0  0  0  0  0  0  0
   -9.3513  207.2329  117.5958 C   0  0  0  0  0  0  0  0  0  0  0  0
   -8.3697  207.5195  118.5464 C   0  0  0  0  0  0  0  0  0  0  0  0
   -8.5623  207.1945  119.8897 C   0  0  0  0  0  0  0  0  0  0  0  0
   -9.7521  206.5834  120.2912 C   0  0  0  0  0  0  0  0  0  0  0  0
   -6.7719  208.3790  118.0141 Br  0  0  0  0  0  0  0  0  0  0  0  0
  -14.1558  207.3355  120.9078 C   0  0  0  0  0  0  0  0  0  0  0  0
  -13.9187  208.7973  121.2993 C   0  0  0  0  0  0  0  0  0  0  0  0
  -12.2246  209.0751  121.9263 S   0  0  0  0  0  0  0  0  0  0  0  0
  -12.0839  209.6424  119.2805 N   0  0  0  0  0  0  0  0  0  0  0  0
  -11.4656  210.1630  118.1963 C   0  0  0  0  0  0  0  0  0  0  0  0
  -10.2354  210.7976  118.2381 C   0  0  0  0  0  0  0  0  0  0  0  0
   -9.5988  210.9062  119.4670 C   0  0  0  0  0  0  0  0  0  0  0  0
  -10.2120  210.3783  120.6007 C   0  0  0  0  0  0  0  0  0  0  0  0
  -11.4489  209.7558  120.4679 C   0  0  0  0  0  0  0  0  0  0  0  0
  1  3  1  0  0  0  0
  1  2  1  0  0  0  0
  3  4  2  0  0  0  0
  3  5  2  0  0  0  0
  3  6  1  0  0  0  0
  6  7  1  0  0  0  0
  6 11  2  0  0  0  0
  7  8  2  0  0  0  0
  8  9  1  0  0  0  0
  9 10  2  0  0  0  0
  9 12  1  0  0  0  0
 10 11  1  0  0  0  0
 13  1  1  0  0  0  0
 14 13  1  0  0  0  0
 15 14  1  0  0  0  0
 16 17  1  0  0  0  0
 16 21  2  0  0  0  0
 17 18  2  0  0  0  0
 18 19  1  0  0  0  0
 19 20  2  0  0  0  0
 20 21  1  0  0  0  0
 21 15  1  0  0  0  0
M  END
>  <minimizedAffinity>
-0.00068

$$$$
