


 16 17  0  0  0  0  0  0  0  0999 V2000
  -14.8258  203.1950  117.2308 C   0  0  0  0  0  0  0  0  0  0  0  0
  -14.0714  204.0797  117.8800 N   0  0  0  0  0  0  0  0  0  0  0  0
  -14.4971  203.9792  119.1482 N   0  0  0  0  0  0  0  0  0  0  0  0
  -15.3260  202.9157  119.3618 C   0  0  0  0  0  0  0  0  0  0  0  0
  -15.6113  202.4154  118.1102 C   0  0  0  0  0  0  0  0  0  0  0  0
  -14.2369  204.6115  119.8566 H   0  0  0  0  0  0  0  0  0  0  0  0
  -13.0344  201.5340  115.7927 O   0  0  0  0  0  0  0  0  0  0  0  0
  -13.8486  202.2717  115.2327 C   0  0  0  0  0  0  0  0  0  0  0  0
  -14.7212  203.1292  115.8631 N   0  0  0  0  0  0  0  0  0  0  0  0
  -15.2904  203.7159  115.3143 H   0  0  0  0  0  0  0  0  0  0  0  0
  -13.9913  202.2749  113.7243 C   0  0  0  0  0  0  0  0  0  0  0  0
  -15.3885  201.8634  113.2734 C   0  0  0  0  0  0  0  0  0  0  0  0
  -15.7333  200.4371  113.6794 C   0  0  0  0  0  0  0  0  0  0  0  0
  -15.7849  202.4546  120.7265 C   0  0  0  0  0  0  0  0  0  0  0  0
  -14.8719  201.5350  121.5116 C   0  0  0  0  0  0  0  0  0  0  0  0
  -16.1590  201.0123  120.9704 C   0  0  0  0  0  0  0  0  0  0  0  0
  7  8  2  0  0  0
  8  9  1  0  0  0
  8 11  1  0  0  0
  9  1  1  0  0  0
  1  2  2  0  0  0
  1  5  1  0  0  0
  2  3  1  0  0  0
  3  4  1  0  0  0
  4  5  2  0  0  0
  4 14  1  0  0  0
 14 15  1  0  0  0
 14 16  1  0  0  0
 15 16  1  0  0  0
 11 12  1  0  0  0
 12 13  1  0  0  0
  9 10  1  0  0  0
  3  6  1  0  0  0
M  END
> <minimizedAffinity>
-0.00003

$$$$



 16 17  0  0  0  0  0  0  0  0999 V2000
  -15.2897  206.7548  123.9382 C   0  0  0  0  0  0  0  0  0  0  0  0
  -14.5456  206.4749  122.8698 N   0  0  0  0  0  0  0  0  0  0  0  0
  -13.3223  206.2822  123.3855 N   0  0  0  0  0  0  0  0  0  0  0  0
  -13.3112  206.2088  124.7486 C   0  0  0  0  0  0  0  0  0  0  0  0
  -14.5780  206.5762  125.1464 C   0  0  0  0  0  0  0  0  0  0  0  0
  -12.5107  206.2015  122.8340 H   0  0  0  0  0  0  0  0  0  0  0  0
  -17.5057  204.9893  123.8465 O   0  0  0  0  0  0  0  0  0  0  0  0
  -17.6279  206.2121  123.7431 C   0  0  0  0  0  0  0  0  0  0  0  0
  -16.5976  207.1246  123.7422 N   0  0  0  0  0  0  0  0  0  0  0  0
  -16.8056  208.0758  123.5960 H   0  0  0  0  0  0  0  0  0  0  0  0
  -18.9961  206.8541  123.6362 C   0  0  0  0  0  0  0  0  0  0  0  0
  -19.2786  207.8115  124.7889 C   0  0  0  0  0  0  0  0  0  0  0  0
  -19.2997  207.1062  126.1380 C   0  0  0  0  0  0  0  0  0  0  0  0
  -12.1093  205.7995  125.5694 C   0  0  0  0  0  0  0  0  0  0  0  0
  -11.8567  204.3196  125.7731 C   0  0  0  0  0  0  0  0  0  0  0  0
  -12.2806  205.1625  126.9275 C   0  0  0  0  0  0  0  0  0  0  0  0
  7  8  2  0  0  0
  8  9  1  0  0  0
  8 11  1  0  0  0
  9  1  1  0  0  0
  1  2  2  0  0  0
  1  5  1  0  0  0
  2  3  1  0  0  0
  3  4  1  0  0  0
  4  5  2  0  0  0
  4 14  1  0  0  0
 14 15  1  0  0  0
 14 16  1  0  0  0
 15 16  1  0  0  0
 11 12  1  0  0  0
 12 13  1  0  0  0
  9 10  1  0  0  0
  3  6  1  0  0  0
M  END
> <minimizedAffinity>
-0.00002

$$$$



 16 17  0  0  0  0  0  0  0  0999 V2000
  -11.4970  208.9097  116.3693 C   0  0  0  0  0  0  0  0  0  0  0  0
  -11.8772  209.3196  117.5780 N   0  0  0  0  0  0  0  0  0  0  0  0
  -11.0523  208.6582  118.4037 N   0  0  0  0  0  0  0  0  0  0  0  0
  -10.0285  208.0259  117.7591 C   0  0  0  0  0  0  0  0  0  0  0  0
  -10.3256  208.1200  116.4171 C   0  0  0  0  0  0  0  0  0  0  0  0
  -11.1735  208.6315  119.3803 H   0  0  0  0  0  0  0  0  0  0  0  0
  -11.0284  211.2573  114.8509 O   0  0  0  0  0  0  0  0  0  0  0  0
  -11.9228  210.4554  114.5723 C   0  0  0  0  0  0  0  0  0  0  0  0
  -12.2309  209.3176  115.2826 N   0  0  0  0  0  0  0  0  0  0  0  0
  -13.0044  208.7771  115.0018 H   0  0  0  0  0  0  0  0  0  0  0  0
  -12.7846  210.6436  113.3404 C   0  0  0  0  0  0  0  0  0  0  0  0
  -12.6538  209.4840  112.3589 C   0  0  0  0  0  0  0  0  0  0  0  0
  -11.2406  209.3444  111.8098 C   0  0  0  0  0  0  0  0  0  0  0  0
   -8.8517  207.3820  118.4567 C   0  0  0  0  0  0  0  0  0  0  0  0
   -7.6830  208.2652  118.8434 C   0  0  0  0  0  0  0  0  0  0  0  0
   -7.5174  207.2520  117.7624 C   0  0  0  0  0  0  0  0  0  0  0  0
  7  8  2  0  0  0
  8  9  1  0  0  0
  8 11  1  0  0  0
  9  1  1  0  0  0
  1  2  2  0  0  0
  1  5  1  0  0  0
  2  3  1  0  0  0
  3  4  1  0  0  0
  4  5  2  0  0  0
  4 14  1  0  0  0
 14 15  1  0  0  0
 14 16  1  0  0  0
 15 16  1  0  0  0
 11 12  1  0  0  0
 12 13  1  0  0  0
  9 10  1  0  0  0
  3  6  1  0  0  0
M  END
> <minimizedAffinity>
-0.00001

$$$$
