
 OpenBabel07192212403D

 29 31  0  0  0  0  0  0  0  0999 V2000
  -14.1589  201.8344  121.2038 C   0  0  1  0  0  0  0  0  0  0  0  0
  -18.1253  204.8583  120.8020 N   0  0  0  0  0  0  0  0  0  0  0  0
  -16.8203  204.5933  120.5358 C   0  0  0  0  0  0  0  0  0  0  0  0
  -16.0508  205.5117  119.7986 C   0  0  0  0  0  0  0  0  0  0  0  0
  -16.6235  206.7025  119.3557 C   0  0  0  0  0  0  0  0  0  0  0  0
  -17.9533  206.9671  119.6387 C   0  0  0  0  0  0  0  0  0  0  0  0
  -18.6539  206.0199  120.3578 C   0  0  0  0  0  0  0  0  0  0  0  0
  -14.7073  205.2443  119.5126 C   0  0  0  0  0  0  0  0  0  0  0  0
  -14.1197  204.0695  119.9648 C   0  0  0  0  0  0  0  0  0  0  0  0
  -14.8343  203.1077  120.6847 C   0  0  0  0  0  0  0  0  0  0  0  0
  -16.1912  203.4021  120.9656 C   0  0  0  0  0  0  0  0  0  0  0  0
  -16.9581  202.5134  121.6855 O   0  0  0  0  0  0  0  0  0  0  0  0
  -17.8553  202.7110  121.8696 H   0  0  0  0  0  0  0  0  0  0  0  0
  -14.6057  201.5239  122.5673 N   0  0  0  0  0  0  0  0  0  0  0  0
  -13.9193  201.9933  123.6723 C   0  0  0  0  0  0  0  0  0  0  0  0
  -13.0383  202.8417  123.6043 O   0  0  0  0  0  0  0  0  0  0  0  0
  -14.3750  201.4007  124.9755 C   0  0  0  0  0  0  0  0  0  0  0  0
  -15.4096  200.9708  122.6976 H   0  0  0  0  0  0  0  0  0  0  0  0
  -14.2083  200.5841  120.2596 C   0  0  0  0  0  0  0  0  0  0  0  0
  -15.0465  200.6253  118.9878 C   0  0  0  0  0  0  0  0  0  0  0  0
  -16.4215  200.3225  119.0696 C   0  0  0  0  0  0  0  0  0  0  0  0
  -17.2558  200.3287  117.9354 C   0  0  0  0  0  0  0  0  0  0  0  0
  -16.6982  200.6199  116.6837 C   0  0  0  0  0  0  0  0  0  0  0  0
  -15.3390  200.9344  116.6017 C   0  0  0  0  0  0  0  0  0  0  0  0
  -14.5266  200.9483  117.7364 C   0  0  0  0  0  0  0  0  0  0  0  0
  -17.3342  200.7212  115.4753 O   0  0  0  0  0  0  0  0  0  0  0  0
  -17.8310  201.9960  115.0986 C   0  0  0  0  0  0  0  0  0  0  0  0
  -18.5909  200.0309  118.0126 O   0  0  0  0  0  0  0  0  0  0  0  0
  -19.3892  200.9353  118.7703 C   0  0  0  0  0  0  0  0  0  0  0  0
  1 14  1  0  0  0  0
  1 19  1  6  0  0  0
  2  3  1  0  0  0  0
  2  7  2  0  0  0  0
  3  4  1  0  0  0  0
  3 11  2  0  0  0  0
  4  5  1  0  0  0  0
  4  8  2  0  0  0  0
  5  6  2  0  0  0  0
  6  7  1  0  0  0  0
  8  9  1  0  0  0  0
  9 10  2  0  0  0  0
 10 11  1  0  0  0  0
 10  1  1  0  0  0  0
 11 12  1  0  0  0  0
 12 13  1  0  0  0  0
 14 15  1  0  0  0  0
 14 18  1  0  0  0  0
 15 16  2  0  0  0  0
 15 17  1  0  0  0  0
 19 20  1  0  0  0  0
 20 21  1  0  0  0  0
 20 25  2  0  0  0  0
 21 22  2  0  0  0  0
 22 23  1  0  0  0  0
 22 28  1  0  0  0  0
 23 24  2  0  0  0  0
 23 26  1  0  0  0  0
 24 25  1  0  0  0  0
 26 27  1  0  0  0  0
 28 29  1  0  0  0  0
M  END
>  <minimizedAffinity>
-0.00041

$$$$
