


 18 19  0  0  0  0  0  0  0  0999 V2000
  -10.5277  207.6109  112.9670 C   0  0  0  0  0  0  0  0  0  0  0  0
  -10.0790  208.4323  112.1707 O   0  0  0  0  0  0  0  0  0  0  0  0
  -11.8666  207.3481  113.1487 N   0  0  0  0  0  0  0  0  0  0  0  0
  -12.1276  206.7037  113.8457 H   0  0  0  0  0  0  0  0  0  0  0  0
   -6.8012  204.4846  116.7877 Br  0  0  0  0  0  0  0  0  0  0  0  0
   -7.9072  205.4131  115.5714 C   0  0  0  0  0  0  0  0  0  0  0  0
   -7.3599  206.3918  114.7406 C   0  0  0  0  0  0  0  0  0  0  0  0
   -8.1832  207.1068  113.8612 C   0  0  0  0  0  0  0  0  0  0  0  0
   -9.5608  206.8511  113.8199 C   0  0  0  0  0  0  0  0  0  0  0  0
  -10.0871  205.8392  114.6408 C   0  0  0  0  0  0  0  0  0  0  0  0
   -9.2669  205.1241  115.5157 C   0  0  0  0  0  0  0  0  0  0  0  0
  -12.8559  207.9424  112.4036 C   0  0  0  0  0  0  0  0  0  0  0  0
  -13.3659  209.1091  112.8038 N   0  0  0  0  0  0  0  0  0  0  0  0
  -14.1843  209.4618  111.7995 N   0  0  0  0  0  0  0  0  0  0  0  0
  -14.3514  208.4840  110.8572 C   0  0  0  0  0  0  0  0  0  0  0  0
  -13.4670  207.4936  111.2114 C   0  0  0  0  0  0  0  0  0  0  0  0
  -15.3007  208.6015  109.7355 C   0  0  0  0  0  0  0  0  0  0  0  0
  -14.6229  210.3415  111.7461 H   0  0  0  0  0  0  0  0  0  0  0  0
  5  6  1  0  0  0
  6  7  1  0  0  0
  6 11  2  0  0  0
  7  8  2  0  0  0
  8  9  1  0  0  0
  9 10  2  0  0  0
  9  1  1  0  0  0
 10 11  1  0  0  0
  1  2  2  0  0  0
  1  3  1  0  0  0
  3 12  1  0  0  0
 12 13  2  0  0  0
 12 16  1  0  0  0
 13 14  1  0  0  0
 14 15  1  0  0  0
 15 16  2  0  0  0
 15 17  1  0  0  0
  3  4  1  0  0  0
 14 18  1  0  0  0
M  END
> <minimizedAffinity>
-0.00006

$$$$



 18 19  0  0  0  0  0  0  0  0999 V2000
   -9.3038  204.1554  116.9535 C   0  0  0  0  0  0  0  0  0  0  0  0
  -10.3184  203.5004  117.1810 O   0  0  0  0  0  0  0  0  0  0  0  0
   -8.0414  203.6224  116.8237 N   0  0  0  0  0  0  0  0  0  0  0  0
   -7.2846  204.2371  116.6875 H   0  0  0  0  0  0  0  0  0  0  0  0
   -9.4846  210.3283  116.6068 Br  0  0  0  0  0  0  0  0  0  0  0  0
   -9.4709  208.4412  116.6633 C   0  0  0  0  0  0  0  0  0  0  0  0
  -10.6330  207.7468  117.0023 C   0  0  0  0  0  0  0  0  0  0  0  0
  -10.6180  206.3480  117.0789 C   0  0  0  0  0  0  0  0  0  0  0  0
   -9.4342  205.6409  116.8270 C   0  0  0  0  0  0  0  0  0  0  0  0
   -8.2833  206.3565  116.4553 C   0  0  0  0  0  0  0  0  0  0  0  0
   -8.2981  207.7504  116.3762 C   0  0  0  0  0  0  0  0  0  0  0  0
   -7.7874  202.2734  116.8753 C   0  0  0  0  0  0  0  0  0  0  0  0
   -7.5535  201.6956  118.0555 N   0  0  0  0  0  0  0  0  0  0  0  0
   -7.4865  200.3868  117.7632 N   0  0  0  0  0  0  0  0  0  0  0  0
   -7.4920  200.1222  116.4208 C   0  0  0  0  0  0  0  0  0  0  0  0
   -7.7224  201.3363  115.8198 C   0  0  0  0  0  0  0  0  0  0  0  0
   -7.2996  198.7697  115.8667 C   0  0  0  0  0  0  0  0  0  0  0  0
   -7.4378  199.6835  118.4504 H   0  0  0  0  0  0  0  0  0  0  0  0
  5  6  1  0  0  0
  6  7  1  0  0  0
  6 11  2  0  0  0
  7  8  2  0  0  0
  8  9  1  0  0  0
  9 10  2  0  0  0
  9  1  1  0  0  0
 10 11  1  0  0  0
  1  2  2  0  0  0
  1  3  1  0  0  0
  3 12  1  0  0  0
 12 13  2  0  0  0
 12 16  1  0  0  0
 13 14  1  0  0  0
 14 15  1  0  0  0
 15 16  2  0  0  0
 15 17  1  0  0  0
  3  4  1  0  0  0
 14 18  1  0  0  0
M  END
> <minimizedAffinity>
-0.00000

$$$$



 18 19  0  0  0  0  0  0  0  0999 V2000
  -18.2778  204.5507  112.2424 C   0  0  0  0  0  0  0  0  0  0  0  0
  -19.4920  204.6891  112.3719 O   0  0  0  0  0  0  0  0  0  0  0  0
  -17.6302  204.4161  111.0353 N   0  0  0  0  0  0  0  0  0  0  0  0
  -16.6576  204.2636  111.0394 H   0  0  0  0  0  0  0  0  0  0  0  0
  -14.5622  204.0857  117.1654 Br  0  0  0  0  0  0  0  0  0  0  0  0
  -15.7144  204.2860  115.6833 C   0  0  0  0  0  0  0  0  0  0  0  0
  -17.0940  204.3634  115.8798 C   0  0  0  0  0  0  0  0  0  0  0  0
  -17.9545  204.4775  114.7802 C   0  0  0  0  0  0  0  0  0  0  0  0
  -17.4354  204.5028  113.4784 C   0  0  0  0  0  0  0  0  0  0  0  0
  -16.0418  204.4567  113.3035 C   0  0  0  0  0  0  0  0  0  0  0  0
  -15.1832  204.3457  114.3989 C   0  0  0  0  0  0  0  0  0  0  0  0
  -18.2766  204.4845  109.8251 C   0  0  0  0  0  0  0  0  0  0  0  0
  -18.7963  203.3746  109.2966 N   0  0  0  0  0  0  0  0  0  0  0  0
  -19.4569  203.8149  108.2137 N   0  0  0  0  0  0  0  0  0  0  0  0
  -19.2331  205.1350  107.9321 C   0  0  0  0  0  0  0  0  0  0  0  0
  -18.4920  205.6038  108.9902 C   0  0  0  0  0  0  0  0  0  0  0  0
  -19.7517  205.7986  106.7222 C   0  0  0  0  0  0  0  0  0  0  0  0
  -20.0471  203.2416  107.6731 H   0  0  0  0  0  0  0  0  0  0  0  0
  5  6  1  0  0  0
  6  7  1  0  0  0
  6 11  2  0  0  0
  7  8  2  0  0  0
  8  9  1  0  0  0
  9 10  2  0  0  0
  9  1  1  0  0  0
 10 11  1  0  0  0
  1  2  2  0  0  0
  1  3  1  0  0  0
  3 12  1  0  0  0
 12 13  2  0  0  0
 12 16  1  0  0  0
 13 14  1  0  0  0
 14 15  1  0  0  0
 15 16  2  0  0  0
 15 17  1  0  0  0
  3  4  1  0  0  0
 14 18  1  0  0  0
M  END
> <minimizedAffinity>
0.00000

$$$$
