


 24 26  0  0  0  0  0  0  0  0999 V2000
  -12.6513  201.5165  114.3634 O   0  0  0  0  0  0  0  0  0  0  0  0
  -12.5500  202.1114  113.2968 C   0  0  0  0  0  0  0  0  0  0  0  0
  -11.4871  202.8873  112.8907 N   0  0  0  0  0  0  0  0  0  0  0  0
  -11.5331  203.3380  112.0166 H   0  0  0  0  0  0  0  0  0  0  0  0
  -10.3644  203.0531  113.6654 C   0  0  0  0  0  0  0  0  0  0  0  0
   -9.3802  202.1550  113.5876 N   0  0  0  0  0  0  0  0  0  0  0  0
   -8.4222  202.6695  114.3773 N   0  0  0  0  0  0  0  0  0  0  0  0
   -8.8442  203.7351  115.1185 C   0  0  0  0  0  0  0  0  0  0  0  0
  -10.0950  204.0473  114.6365 C   0  0  0  0  0  0  0  0  0  0  0  0
   -7.5055  202.3125  114.4173 H   0  0  0  0  0  0  0  0  0  0  0  0
   -8.0414  204.3878  116.2257 C   0  0  0  0  0  0  0  0  0  0  0  0
   -8.0806  203.7661  117.6057 C   0  0  0  0  0  0  0  0  0  0  0  0
   -8.7595  205.0698  117.3668 C   0  0  0  0  0  0  0  0  0  0  0  0
  -13.6931  202.0825  112.3455 C   0  0  0  0  0  0  0  0  0  0  0  0
  -13.6271  202.8234  111.1580 C   0  0  0  0  0  0  0  0  0  0  0  0
  -14.7280  202.8673  110.2924 C   0  0  0  0  0  0  0  0  0  0  0  0
  -15.9025  202.1803  110.6228 C   0  0  0  0  0  0  0  0  0  0  0  0
  -15.9545  201.4203  111.7998 C   0  0  0  0  0  0  0  0  0  0  0  0
  -14.8570  201.3729  112.6630 C   0  0  0  0  0  0  0  0  0  0  0  0
  -17.1136  202.2207  109.7638 C   0  0  0  0  0  0  0  0  0  0  0  0
  -17.1179  202.8363  108.7008 O   0  0  0  0  0  0  0  0  0  0  0  0
  -18.2041  201.5074  110.1660 N   0  0  0  0  0  0  0  0  0  0  0  0
  -18.1851  201.0193  111.0207 H   0  0  0  0  0  0  0  0  0  0  0  0
  -19.0103  201.4807  109.6016 H   0  0  0  0  0  0  0  0  0  0  0  0
  1  2  2  0  0  0
  2  3  1  0  0  0
  2 14  1  0  0  0
  3  5  1  0  0  0
  5  6  2  0  0  0
  5  9  1  0  0  0
  6  7  1  0  0  0
  7  8  1  0  0  0
  8  9  2  0  0  0
  8 11  1  0  0  0
 11 12  1  0  0  0
 11 13  1  0  0  0
 12 13  1  0  0  0
 14 15  1  0  0  0
 14 19  2  0  0  0
 15 16  2  0  0  0
 16 17  1  0  0  0
 17 18  2  0  0  0
 17 20  1  0  0  0
 18 19  1  0  0  0
 20 21  2  0  0  0
 20 22  1  0  0  0
  3  4  1  0  0  0
  7 10  1  0  0  0
 22 23  1  0  0  0
 22 24  1  0  0  0
M  END
> <minimizedAffinity>
-0.00012

$$$$



 24 26  0  0  0  0  0  0  0  0999 V2000
  -14.1522  203.9625  116.4170 O   0  0  0  0  0  0  0  0  0  0  0  0
  -13.0023  204.2625  116.7165 C   0  0  0  0  0  0  0  0  0  0  0  0
  -12.2441  203.6976  117.7180 N   0  0  0  0  0  0  0  0  0  0  0  0
  -11.3366  204.0429  117.8803 H   0  0  0  0  0  0  0  0  0  0  0  0
  -12.7128  202.6681  118.4981 C   0  0  0  0  0  0  0  0  0  0  0  0
  -12.5789  201.4116  118.0684 N   0  0  0  0  0  0  0  0  0  0  0  0
  -13.0372  200.6774  119.0965 N   0  0  0  0  0  0  0  0  0  0  0  0
  -13.6554  201.4201  120.0606 C   0  0  0  0  0  0  0  0  0  0  0  0
  -13.4126  202.7331  119.7268 C   0  0  0  0  0  0  0  0  0  0  0  0
  -12.9369  199.6995  119.1492 H   0  0  0  0  0  0  0  0  0  0  0  0
  -14.4285  200.8441  121.2298 C   0  0  0  0  0  0  0  0  0  0  0  0
  -15.8702  200.4374  121.0091 C   0  0  0  0  0  0  0  0  0  0  0  0
  -15.5626  201.6358  121.8380 C   0  0  0  0  0  0  0  0  0  0  0  0
  -12.3448  205.3914  116.0055 C   0  0  0  0  0  0  0  0  0  0  0  0
  -11.0611  205.8008  116.3902 C   0  0  0  0  0  0  0  0  0  0  0  0
  -10.4639  206.9127  115.7816 C   0  0  0  0  0  0  0  0  0  0  0  0
  -11.1584  207.6250  114.7965 C   0  0  0  0  0  0  0  0  0  0  0  0
  -12.4323  207.1962  114.3976 C   0  0  0  0  0  0  0  0  0  0  0  0
  -13.0285  206.0862  115.0011 C   0  0  0  0  0  0  0  0  0  0  0  0
  -10.5923  208.8330  114.1433 C   0  0  0  0  0  0  0  0  0  0  0  0
   -9.4653  209.2355  114.4204 O   0  0  0  0  0  0  0  0  0  0  0  0
  -11.3420  209.4502  113.1859 N   0  0  0  0  0  0  0  0  0  0  0  0
  -12.2437  209.1157  112.9751 H   0  0  0  0  0  0  0  0  0  0  0  0
  -10.9817  210.2303  112.7054 H   0  0  0  0  0  0  0  0  0  0  0  0
  1  2  2  0  0  0
  2  3  1  0  0  0
  2 14  1  0  0  0
  3  5  1  0  0  0
  5  6  2  0  0  0
  5  9  1  0  0  0
  6  7  1  0  0  0
  7  8  1  0  0  0
  8  9  2  0  0  0
  8 11  1  0  0  0
 11 12  1  0  0  0
 11 13  1  0  0  0
 12 13  1  0  0  0
 14 15  1  0  0  0
 14 19  2  0  0  0
 15 16  2  0  0  0
 16 17  1  0  0  0
 17 18  2  0  0  0
 17 20  1  0  0  0
 18 19  1  0  0  0
 20 21  2  0  0  0
 20 22  1  0  0  0
  3  4  1  0  0  0
  7 10  1  0  0  0
 22 23  1  0  0  0
 22 24  1  0  0  0
M  END
> <minimizedAffinity>
-0.00012

$$$$



 24 26  0  0  0  0  0  0  0  0999 V2000
  -19.2299  204.1381  113.0364 O   0  0  0  0  0  0  0  0  0  0  0  0
  -18.3964  204.9290  113.4625 C   0  0  0  0  0  0  0  0  0  0  0  0
  -17.5882  204.7514  114.5635 N   0  0  0  0  0  0  0  0  0  0  0  0
  -16.9719  205.4739  114.8231 H   0  0  0  0  0  0  0  0  0  0  0  0
  -17.6139  203.5991  115.3115 C   0  0  0  0  0  0  0  0  0  0  0  0
  -16.8603  202.5627  114.9382 N   0  0  0  0  0  0  0  0  0  0  0  0
  -17.0441  201.6690  115.9250 N   0  0  0  0  0  0  0  0  0  0  0  0
  -18.0475  202.0094  116.7854 C   0  0  0  0  0  0  0  0  0  0  0  0
  -18.4054  203.2940  116.4448 C   0  0  0  0  0  0  0  0  0  0  0  0
  -16.5075  200.8489  116.0181 H   0  0  0  0  0  0  0  0  0  0  0  0
  -18.5980  201.1050  117.8696 C   0  0  0  0  0  0  0  0  0  0  0  0
  -19.6468  200.0814  117.4893 C   0  0  0  0  0  0  0  0  0  0  0  0
  -20.0339  201.2596  118.3137 C   0  0  0  0  0  0  0  0  0  0  0  0
  -18.2594  206.2550  112.8027 C   0  0  0  0  0  0  0  0  0  0  0  0
  -17.3693  207.2023  113.3259 C   0  0  0  0  0  0  0  0  0  0  0  0
  -17.2896  208.4820  112.7611 C   0  0  0  0  0  0  0  0  0  0  0  0
  -18.1126  208.8194  111.6798 C   0  0  0  0  0  0  0  0  0  0  0  0
  -18.9834  207.8599  111.1442 C   0  0  0  0  0  0  0  0  0  0  0  0
  -19.0626  206.5824  111.7041 C   0  0  0  0  0  0  0  0  0  0  0  0
  -18.0995  210.1711  111.0642 C   0  0  0  0  0  0  0  0  0  0  0  0
  -17.3310  211.0428  111.4624 O   0  0  0  0  0  0  0  0  0  0  0  0
  -18.9298  210.3976  110.0064 N   0  0  0  0  0  0  0  0  0  0  0  0
  -19.5400  209.6888  109.6991 H   0  0  0  0  0  0  0  0  0  0  0  0
  -18.9189  211.2699  109.5500 H   0  0  0  0  0  0  0  0  0  0  0  0
  1  2  2  0  0  0
  2  3  1  0  0  0
  2 14  1  0  0  0
  3  5  1  0  0  0
  5  6  2  0  0  0
  5  9  1  0  0  0
  6  7  1  0  0  0
  7  8  1  0  0  0
  8  9  2  0  0  0
  8 11  1  0  0  0
 11 12  1  0  0  0
 11 13  1  0  0  0
 12 13  1  0  0  0
 14 15  1  0  0  0
 14 19  2  0  0  0
 15 16  2  0  0  0
 16 17  1  0  0  0
 17 18  2  0  0  0
 17 20  1  0  0  0
 18 19  1  0  0  0
 20 21  2  0  0  0
 20 22  1  0  0  0
  3  4  1  0  0  0
  7 10  1  0  0  0
 22 23  1  0  0  0
 22 24  1  0  0  0
M  END
> <minimizedAffinity>
-0.00009

$$$$
