


 23 25  0  0  0  0  0  0  0  0999 V2000
  -10.3556  204.1946  115.2216 C   0  0  0  0  0  0  0  0  0  0  0  0
   -9.3040  203.4423  115.5518 N   0  0  0  0  0  0  0  0  0  0  0  0
   -9.6235  202.9582  116.7593 N   0  0  0  0  0  0  0  0  0  0  0  0
  -10.9209  203.1938  117.1178 C   0  0  0  0  0  0  0  0  0  0  0  0
  -11.4137  204.0358  116.1435 C   0  0  0  0  0  0  0  0  0  0  0  0
   -8.9843  202.4781  117.3338 H   0  0  0  0  0  0  0  0  0  0  0  0
  -11.5570  202.6241  118.3507 C   0  0  0  0  0  0  0  0  0  0  0  0
  -11.6014  201.0877  118.2927 C   0  0  0  0  0  0  0  0  0  0  0  0
  -12.3316  200.4888  119.4902 C   0  0  0  0  0  0  0  0  0  0  0  0
  -13.7287  201.0824  119.6469 C   0  0  0  0  0  0  0  0  0  0  0  0
  -13.6702  202.6015  119.7683 C   0  0  0  0  0  0  0  0  0  0  0  0
  -12.9548  203.2267  118.5753 C   0  0  0  0  0  0  0  0  0  0  0  0
   -9.8234  206.2538  114.0830 C   0  0  0  0  0  0  0  0  0  0  0  0
   -9.3360  206.8106  115.0658 O   0  0  0  0  0  0  0  0  0  0  0  0
  -10.3065  204.9634  114.0829 N   0  0  0  0  0  0  0  0  0  0  0  0
  -10.6283  204.5777  113.2362 H   0  0  0  0  0  0  0  0  0  0  0  0
   -9.9640  208.9827  108.5387 Br  0  0  0  0  0  0  0  0  0  0  0  0
   -9.9544  208.1987  110.2558 C   0  0  0  0  0  0  0  0  0  0  0  0
   -9.3105  208.8500  111.3137 C   0  0  0  0  0  0  0  0  0  0  0  0
   -9.2674  208.2559  112.5827 C   0  0  0  0  0  0  0  0  0  0  0  0
   -9.8679  207.0065  112.7923 C   0  0  0  0  0  0  0  0  0  0  0  0
  -10.5334  206.3850  111.7239 C   0  0  0  0  0  0  0  0  0  0  0  0
  -10.5749  206.9745  110.4592 C   0  0  0  0  0  0  0  0  0  0  0  0
 17 18  1  0  0  0
 18 19  1  0  0  0
 18 23  2  0  0  0
 19 20  2  0  0  0
 20 21  1  0  0  0
 21 22  2  0  0  0
 21 13  1  0  0  0
 22 23  1  0  0  0
 13 14  2  0  0  0
 13 15  1  0  0  0
 15  1  1  0  0  0
  1  2  2  0  0  0
  1  5  1  0  0  0
  2  3  1  0  0  0
  3  4  1  0  0  0
  4  5  2  0  0  0
  4  7  1  0  0  0
  7  8  1  0  0  0
  7 12  1  0  0  0
  8  9  1  0  0  0
  9 10  1  0  0  0
 10 11  1  0  0  0
 11 12  1  0  0  0
 15 16  1  0  0  0
  3  6  1  0  0  0
M  END
> <minimizedAffinity>
-0.00002

$$$$



 23 25  0  0  0  0  0  0  0  0999 V2000
  -11.3641  206.9626  118.2129 C   0  0  0  0  0  0  0  0  0  0  0  0
  -11.0699  205.9284  117.4224 N   0  0  0  0  0  0  0  0  0  0  0  0
  -11.6931  206.2174  116.2724 N   0  0  0  0  0  0  0  0  0  0  0  0
  -12.1907  207.4891  116.2239 C   0  0  0  0  0  0  0  0  0  0  0  0
  -12.0216  207.9880  117.4981 C   0  0  0  0  0  0  0  0  0  0  0  0
  -11.7840  205.5745  115.5323 H   0  0  0  0  0  0  0  0  0  0  0  0
  -12.7954  208.0965  114.9932 C   0  0  0  0  0  0  0  0  0  0  0  0
  -11.7608  208.2004  113.8599 C   0  0  0  0  0  0  0  0  0  0  0  0
  -12.3249  208.9042  112.6301 C   0  0  0  0  0  0  0  0  0  0  0  0
  -12.9040  210.2710  112.9849 C   0  0  0  0  0  0  0  0  0  0  0  0
  -13.9749  210.1511  114.0639 C   0  0  0  0  0  0  0  0  0  0  0  0
  -13.4320  209.4609  115.3108 C   0  0  0  0  0  0  0  0  0  0  0  0
  -11.8002  206.3978  120.5174 C   0  0  0  0  0  0  0  0  0  0  0  0
  -12.8807  205.8501  120.3032 O   0  0  0  0  0  0  0  0  0  0  0  0
  -10.9923  206.9299  119.5361 N   0  0  0  0  0  0  0  0  0  0  0  0
  -10.1167  207.3002  119.7919 H   0  0  0  0  0  0  0  0  0  0  0  0
   -9.3555  206.6562  126.1886 Br  0  0  0  0  0  0  0  0  0  0  0  0
  -10.1540  206.6077  124.4788 C   0  0  0  0  0  0  0  0  0  0  0  0
  -11.3444  205.8975  124.2876 C   0  0  0  0  0  0  0  0  0  0  0  0
  -11.9231  205.8263  123.0127 C   0  0  0  0  0  0  0  0  0  0  0  0
  -11.3076  206.4652  121.9271 C   0  0  0  0  0  0  0  0  0  0  0  0
  -10.1297  207.1962  122.1479 C   0  0  0  0  0  0  0  0  0  0  0  0
   -9.5512  207.2658  123.4165 C   0  0  0  0  0  0  0  0  0  0  0  0
 17 18  1  0  0  0
 18 19  1  0  0  0
 18 23  2  0  0  0
 19 20  2  0  0  0
 20 21  1  0  0  0
 21 22  2  0  0  0
 21 13  1  0  0  0
 22 23  1  0  0  0
 13 14  2  0  0  0
 13 15  1  0  0  0
 15  1  1  0  0  0
  1  2  2  0  0  0
  1  5  1  0  0  0
  2  3  1  0  0  0
  3  4  1  0  0  0
  4  5  2  0  0  0
  4  7  1  0  0  0
  7  8  1  0  0  0
  7 12  1  0  0  0
  8  9  1  0  0  0
  9 10  1  0  0  0
 10 11  1  0  0  0
 11 12  1  0  0  0
 15 16  1  0  0  0
  3  6  1  0  0  0
M  END
> <minimizedAffinity>
-0.00002

$$$$



 23 25  0  0  0  0  0  0  0  0999 V2000
  -12.6489  205.9144  121.5901 C   0  0  0  0  0  0  0  0  0  0  0  0
  -12.3583  204.6151  121.4991 N   0  0  0  0  0  0  0  0  0  0  0  0
  -11.0693  204.6003  121.1347 N   0  0  0  0  0  0  0  0  0  0  0  0
  -10.4680  205.8257  121.1996 C   0  0  0  0  0  0  0  0  0  0  0  0
  -11.4911  206.7126  121.4597 C   0  0  0  0  0  0  0  0  0  0  0  0
  -10.5998  203.7841  120.8473 H   0  0  0  0  0  0  0  0  0  0  0  0
   -8.9991  206.0408  120.9869 C   0  0  0  0  0  0  0  0  0  0  0  0
   -8.1706  205.3090  122.0565 C   0  0  0  0  0  0  0  0  0  0  0  0
   -6.6782  205.5921  121.9198 C   0  0  0  0  0  0  0  0  0  0  0  0
   -6.3914  207.0910  121.9199 C   0  0  0  0  0  0  0  0  0  0  0  0
   -7.1678  207.7993  120.8149 C   0  0  0  0  0  0  0  0  0  0  0  0
   -8.6661  207.5422  120.9364 C   0  0  0  0  0  0  0  0  0  0  0  0
  -14.8392  206.5334  120.7905 C   0  0  0  0  0  0  0  0  0  0  0  0
  -14.5865  206.3532  119.6001 O   0  0  0  0  0  0  0  0  0  0  0  0
  -13.9482  206.3028  121.8160 N   0  0  0  0  0  0  0  0  0  0  0  0
  -14.2533  206.4204  122.7446 H   0  0  0  0  0  0  0  0  0  0  0  0
  -20.4659  208.2413  122.6954 Br  0  0  0  0  0  0  0  0  0  0  0  0
  -18.7451  207.7725  122.0773 C   0  0  0  0  0  0  0  0  0  0  0  0
  -18.5432  207.5069  120.7183 C   0  0  0  0  0  0  0  0  0  0  0  0
  -17.2761  207.1219  120.2583 C   0  0  0  0  0  0  0  0  0  0  0  0
  -16.2101  207.0005  121.1606 C   0  0  0  0  0  0  0  0  0  0  0  0
  -16.4287  207.3001  122.5145 C   0  0  0  0  0  0  0  0  0  0  0  0
  -17.6906  207.6812  122.9742 C   0  0  0  0  0  0  0  0  0  0  0  0
 17 18  1  0  0  0
 18 19  1  0  0  0
 18 23  2  0  0  0
 19 20  2  0  0  0
 20 21  1  0  0  0
 21 22  2  0  0  0
 21 13  1  0  0  0
 22 23  1  0  0  0
 13 14  2  0  0  0
 13 15  1  0  0  0
 15  1  1  0  0  0
  1  2  2  0  0  0
  1  5  1  0  0  0
  2  3  1  0  0  0
  3  4  1  0  0  0
  4  5  2  0  0  0
  4  7  1  0  0  0
  7  8  1  0  0  0
  7 12  1  0  0  0
  8  9  1  0  0  0
  9 10  1  0  0  0
 10 11  1  0  0  0
 11 12  1  0  0  0
 15 16  1  0  0  0
  3  6  1  0  0  0
M  END
> <minimizedAffinity>
-0.00000

$$$$
