
 OpenBabel07192212403D

 20 21  0  0  0  0  0  0  0  0999 V2000
  -12.0054  204.6409  120.3313 N   0  0  0  0  0  0  0  0  0  0  0  0
  -10.8524  203.8697  120.3559 C   0  0  0  0  0  0  0  0  0  0  0  0
  -10.7123  202.7623  119.8363 O   0  0  0  0  0  0  0  0  0  0  0  0
  -11.9996  205.4740  120.8558 H   0  0  0  0  0  0  0  0  0  0  0  0
  -14.4571  204.1593  117.5472 C   0  0  0  0  0  0  0  0  0  0  0  0
  -13.2875  204.4864  118.2351 C   0  0  0  0  0  0  0  0  0  0  0  0
  -13.1893  204.3351  119.6185 C   0  0  0  0  0  0  0  0  0  0  0  0
  -14.3041  203.8779  120.3297 C   0  0  0  0  0  0  0  0  0  0  0  0
  -15.4757  203.5301  119.6469 C   0  0  0  0  0  0  0  0  0  0  0  0
  -15.5484  203.6652  118.2627 C   0  0  0  0  0  0  0  0  0  0  0  0
  -14.6365  204.2829  116.1950 O   0  0  0  0  0  0  0  0  0  0  0  0
  -13.5354  204.8305  115.4663 C   0  0  0  0  0  0  0  0  0  0  0  0
   -9.7009  204.4947  121.1303 C   0  0  0  0  0  0  0  0  0  0  0  0
   -8.5414  205.3076  119.9797 S   0  0  0  0  0  0  0  0  0  0  0  0
   -9.6631  206.1401  118.9721 C   0  0  0  0  0  0  0  0  0  0  0  0
  -10.4676  207.1102  119.3292 N   0  0  0  0  0  0  0  0  0  0  0  0
  -11.1871  207.4347  118.2029 N   0  0  0  0  0  0  0  0  0  0  0  0
  -10.8312  206.6738  117.1749 N   0  0  0  0  0  0  0  0  0  0  0  0
   -9.8751  205.8580  117.6537 N   0  0  0  0  0  0  0  0  0  0  0  0
   -9.2754  204.8593  116.8160 C   0  0  0  0  0  0  0  0  0  0  0  0
  1  2  1  0  0  0  0
  1  4  1  0  0  0  0
  2  3  2  0  0  0  0
  2 13  1  0  0  0  0
  5  6  1  0  0  0  0
  5 10  2  0  0  0  0
  6  7  2  0  0  0  0
  7  8  1  0  0  0  0
  7  1  1  0  0  0  0
  8  9  2  0  0  0  0
  9 10  1  0  0  0  0
 11  5  1  0  0  0  0
 11 12  1  0  0  0  0
 13 14  1  0  0  0  0
 14 15  1  0  0  0  0
 15 16  2  0  0  0  0
 15 19  1  0  0  0  0
 16 17  1  0  0  0  0
 17 18  2  0  0  0  0
 18 19  1  0  0  0  0
 19 20  1  0  0  0  0
M  END
>  <minimizedAffinity>
-0.00036

$$$$
