


 29 31  0  0  0  0  0  0  0  0999 V2000
  -14.1589  201.8344  121.2038 C   0  0  0  0  0  0  0  0  0  0  0  0
  -18.1253  204.8583  120.8020 N   0  0  0  0  0  0  0  0  0  0  0  0
  -16.8203  204.5933  120.5358 C   0  0  0  0  0  0  0  0  0  0  0  0
  -16.0508  205.5117  119.7986 C   0  0  0  0  0  0  0  0  0  0  0  0
  -16.6235  206.7025  119.3557 C   0  0  0  0  0  0  0  0  0  0  0  0
  -17.9533  206.9671  119.6387 C   0  0  0  0  0  0  0  0  0  0  0  0
  -18.6539  206.0199  120.3578 C   0  0  0  0  0  0  0  0  0  0  0  0
  -14.7073  205.2443  119.5126 C   0  0  0  0  0  0  0  0  0  0  0  0
  -14.1197  204.0695  119.9648 C   0  0  0  0  0  0  0  0  0  0  0  0
  -14.8343  203.1077  120.6847 C   0  0  0  0  0  0  0  0  0  0  0  0
  -16.1912  203.4021  120.9656 C   0  0  0  0  0  0  0  0  0  0  0  0
  -16.9581  202.5134  121.6855 O   0  0  0  0  0  0  0  0  0  0  0  0
  -17.8553  202.7110  121.8696 H   0  0  0  0  0  0  0  0  0  0  0  0
  -14.6057  201.5239  122.5673 N   0  0  0  0  0  0  0  0  0  0  0  0
  -13.9193  201.9933  123.6723 C   0  0  0  0  0  0  0  0  0  0  0  0
  -13.0383  202.8417  123.6043 O   0  0  0  0  0  0  0  0  0  0  0  0
  -14.3750  201.4007  124.9755 C   0  0  0  0  0  0  0  0  0  0  0  0
  -15.4096  200.9708  122.6976 H   0  0  0  0  0  0  0  0  0  0  0  0
  -14.2083  200.5841  120.2596 C   0  0  0  0  0  0  0  0  0  0  0  0
  -15.0465  200.6253  118.9878 C   0  0  0  0  0  0  0  0  0  0  0  0
  -16.4215  200.3225  119.0696 C   0  0  0  0  0  0  0  0  0  0  0  0
  -17.2558  200.3287  117.9354 C   0  0  0  0  0  0  0  0  0  0  0  0
  -16.6982  200.6199  116.6837 C   0  0  0  0  0  0  0  0  0  0  0  0
  -15.3390  200.9344  116.6017 C   0  0  0  0  0  0  0  0  0  0  0  0
  -14.5266  200.9483  117.7364 C   0  0  0  0  0  0  0  0  0  0  0  0
  -17.3342  200.7212  115.4753 O   0  0  0  0  0  0  0  0  0  0  0  0
  -17.8310  201.9960  115.0986 C   0  0  0  0  0  0  0  0  0  0  0  0
  -18.5909  200.0309  118.0126 O   0  0  0  0  0  0  0  0  0  0  0  0
  -19.3892  200.9353  118.7703 C   0  0  0  0  0  0  0  0  0  0  0  0
  2  3  1  0  0  0
  2  7  2  0  0  0
  3  4  1  0  0  0
  3 11  2  0  0  0
  4  5  1  0  0  0
  4  8  2  0  0  0
  5  6  2  0  0  0
  6  7  1  0  0  0
  8  9  1  0  0  0
  9 10  2  0  0  0
 10 11  1  0  0  0
 10  1  1  0  0  0
 11 12  1  0  0  0
  1 14  1  0  0  0
  1 19  1  0  0  0
 14 15  1  0  0  0
 15 16  2  0  0  0
 15 17  1  0  0  0
 19 20  1  0  0  0
 20 21  1  0  0  0
 20 25  2  0  0  0
 21 22  2  0  0  0
 22 23  1  0  0  0
 22 28  1  0  0  0
 23 24  2  0  0  0
 23 26  1  0  0  0
 24 25  1  0  0  0
 26 27  1  0  0  0
 28 29  1  0  0  0
 12 13  1  0  0  0
 14 18  1  0  0  0
M  END
> <minimizedAffinity>
-0.00041

$$$$



 29 31  0  0  0  0  0  0  0  0999 V2000
  -17.1279  200.1795  117.4227 C   0  0  0  0  0  0  0  0  0  0  0  0
  -19.9046  201.4137  121.3981 N   0  0  0  0  0  0  0  0  0  0  0  0
  -19.0789  200.5373  120.7703 C   0  0  0  0  0  0  0  0  0  0  0  0
  -18.7261  199.3285  121.3973 C   0  0  0  0  0  0  0  0  0  0  0  0
  -19.2381  199.0220  122.6568 C   0  0  0  0  0  0  0  0  0  0  0  0
  -20.0855  199.9191  123.2858 C   0  0  0  0  0  0  0  0  0  0  0  0
  -20.3838  201.0906  122.6196 C   0  0  0  0  0  0  0  0  0  0  0  0
  -17.8699  198.4222  120.7618 C   0  0  0  0  0  0  0  0  0  0  0  0
  -17.3679  198.7074  119.4983 C   0  0  0  0  0  0  0  0  0  0  0  0
  -17.6640  199.8990  118.8301 C   0  0  0  0  0  0  0  0  0  0  0  0
  -18.5358  200.7989  119.4912 C   0  0  0  0  0  0  0  0  0  0  0  0
  -18.8904  201.9865  118.8912 O   0  0  0  0  0  0  0  0  0  0  0  0
  -19.4672  202.5797  119.3311 H   0  0  0  0  0  0  0  0  0  0  0  0
  -18.1627  200.7929  116.5813 N   0  0  0  0  0  0  0  0  0  0  0  0
  -18.9990  200.0220  115.7946 C   0  0  0  0  0  0  0  0  0  0  0  0
  -19.0750  198.8032  115.8907 O   0  0  0  0  0  0  0  0  0  0  0  0
  -19.8404  200.8135  114.8341 C   0  0  0  0  0  0  0  0  0  0  0  0
  -18.2633  201.7723  116.5770 H   0  0  0  0  0  0  0  0  0  0  0  0
  -15.7595  200.9392  117.3362 C   0  0  0  0  0  0  0  0  0  0  0  0
  -15.1239  201.5057  118.5998 C   0  0  0  0  0  0  0  0  0  0  0  0
  -15.5314  202.7770  119.0546 C   0  0  0  0  0  0  0  0  0  0  0  0
  -14.9803  203.3693  120.2070 C   0  0  0  0  0  0  0  0  0  0  0  0
  -13.9789  202.6860  120.9091 C   0  0  0  0  0  0  0  0  0  0  0  0
  -13.5834  201.4199  120.4691 C   0  0  0  0  0  0  0  0  0  0  0  0
  -14.1537  200.8325  119.3388 C   0  0  0  0  0  0  0  0  0  0  0  0
  -13.3492  203.0600  122.0661 O   0  0  0  0  0  0  0  0  0  0  0  0
  -13.9269  202.6434  123.2934 C   0  0  0  0  0  0  0  0  0  0  0  0
  -15.3721  204.6059  120.6479 O   0  0  0  0  0  0  0  0  0  0  0  0
  -16.7247  204.7140  121.0818 C   0  0  0  0  0  0  0  0  0  0  0  0
  2  3  1  0  0  0
  2  7  2  0  0  0
  3  4  1  0  0  0
  3 11  2  0  0  0
  4  5  1  0  0  0
  4  8  2  0  0  0
  5  6  2  0  0  0
  6  7  1  0  0  0
  8  9  1  0  0  0
  9 10  2  0  0  0
 10 11  1  0  0  0
 10  1  1  0  0  0
 11 12  1  0  0  0
  1 14  1  0  0  0
  1 19  1  0  0  0
 14 15  1  0  0  0
 15 16  2  0  0  0
 15 17  1  0  0  0
 19 20  1  0  0  0
 20 21  1  0  0  0
 20 25  2  0  0  0
 21 22  2  0  0  0
 22 23  1  0  0  0
 22 28  1  0  0  0
 23 24  2  0  0  0
 23 26  1  0  0  0
 24 25  1  0  0  0
 26 27  1  0  0  0
 28 29  1  0  0  0
 12 13  1  0  0  0
 14 18  1  0  0  0
M  END
> <minimizedAffinity>
-0.00034

$$$$



 29 31  0  0  0  0  0  0  0  0999 V2000
  -12.5079  204.3967  114.6648 C   0  0  0  0  0  0  0  0  0  0  0  0
  -12.7181  207.2065  110.5298 N   0  0  0  0  0  0  0  0  0  0  0  0
  -13.3499  206.4859  111.4919 C   0  0  0  0  0  0  0  0  0  0  0  0
  -14.7505  206.3569  111.4703 C   0  0  0  0  0  0  0  0  0  0  0  0
  -15.4892  206.9547  110.4508 C   0  0  0  0  0  0  0  0  0  0  0  0
  -14.8350  207.6813  109.4699 C   0  0  0  0  0  0  0  0  0  0  0  0
  -13.4606  207.7766  109.5552 C   0  0  0  0  0  0  0  0  0  0  0  0
  -15.4115  205.6227  112.4615 C   0  0  0  0  0  0  0  0  0  0  0  0
  -14.6849  205.0062  113.4724 C   0  0  0  0  0  0  0  0  0  0  0  0
  -13.2939  205.1124  113.5617 C   0  0  0  0  0  0  0  0  0  0  0  0
  -12.6465  205.8570  112.5452 C   0  0  0  0  0  0  0  0  0  0  0  0
  -11.2763  205.9933  112.5523 O   0  0  0  0  0  0  0  0  0  0  0  0
  -10.8511  206.4863  111.8785 H   0  0  0  0  0  0  0  0  0  0  0  0
  -11.2781  203.8010  114.1284 N   0  0  0  0  0  0  0  0  0  0  0  0
  -11.2546  202.4991  113.6625 C   0  0  0  0  0  0  0  0  0  0  0  0
  -12.2667  201.8343  113.4778 O   0  0  0  0  0  0  0  0  0  0  0  0
   -9.8773  201.9792  113.3625 C   0  0  0  0  0  0  0  0  0  0  0  0
  -10.4539  204.3387  114.0999 H   0  0  0  0  0  0  0  0  0  0  0  0
  -12.2534  205.2105  115.9801 C   0  0  0  0  0  0  0  0  0  0  0  0
  -12.6300  206.6855  116.0457 C   0  0  0  0  0  0  0  0  0  0  0  0
  -11.7163  207.6428  115.5582 C   0  0  0  0  0  0  0  0  0  0  0  0
  -11.9903  209.0234  115.5967 C   0  0  0  0  0  0  0  0  0  0  0  0
  -13.1963  209.4610  116.1592 C   0  0  0  0  0  0  0  0  0  0  0  0
  -14.1099  208.5139  116.6299 C   0  0  0  0  0  0  0  0  0  0  0  0
  -13.8376  207.1466  116.5650 C   0  0  0  0  0  0  0  0  0  0  0  0
  -13.6721  210.7415  116.2539 O   0  0  0  0  0  0  0  0  0  0  0  0
  -14.4639  211.2297  115.1823 C   0  0  0  0  0  0  0  0  0  0  0  0
  -11.1020  209.9549  115.1272 O   0  0  0  0  0  0  0  0  0  0  0  0
  -10.8344  209.9126  113.7287 C   0  0  0  0  0  0  0  0  0  0  0  0
  2  3  1  0  0  0
  2  7  2  0  0  0
  3  4  1  0  0  0
  3 11  2  0  0  0
  4  5  1  0  0  0
  4  8  2  0  0  0
  5  6  2  0  0  0
  6  7  1  0  0  0
  8  9  1  0  0  0
  9 10  2  0  0  0
 10 11  1  0  0  0
 10  1  1  0  0  0
 11 12  1  0  0  0
  1 14  1  0  0  0
  1 19  1  0  0  0
 14 15  1  0  0  0
 15 16  2  0  0  0
 15 17  1  0  0  0
 19 20  1  0  0  0
 20 21  1  0  0  0
 20 25  2  0  0  0
 21 22  2  0  0  0
 22 23  1  0  0  0
 22 28  1  0  0  0
 23 24  2  0  0  0
 23 26  1  0  0  0
 24 25  1  0  0  0
 26 27  1  0  0  0
 28 29  1  0  0  0
 12 13  1  0  0  0
 14 18  1  0  0  0
M  END
> <minimizedAffinity>
-0.00013

$$$$
