


 20 21  0  0  0  0  0  0  0  0999 V2000
  -12.0054  204.6409  120.3313 N   0  0  0  0  0  0  0  0  0  0  0  0
  -10.8524  203.8697  120.3559 C   0  0  0  0  0  0  0  0  0  0  0  0
  -10.7123  202.7623  119.8363 O   0  0  0  0  0  0  0  0  0  0  0  0
  -11.9996  205.4740  120.8558 H   0  0  0  0  0  0  0  0  0  0  0  0
  -14.4571  204.1593  117.5472 C   0  0  0  0  0  0  0  0  0  0  0  0
  -13.2875  204.4864  118.2351 C   0  0  0  0  0  0  0  0  0  0  0  0
  -13.1893  204.3351  119.6185 C   0  0  0  0  0  0  0  0  0  0  0  0
  -14.3041  203.8779  120.3297 C   0  0  0  0  0  0  0  0  0  0  0  0
  -15.4757  203.5301  119.6469 C   0  0  0  0  0  0  0  0  0  0  0  0
  -15.5484  203.6652  118.2627 C   0  0  0  0  0  0  0  0  0  0  0  0
  -14.6365  204.2829  116.1950 O   0  0  0  0  0  0  0  0  0  0  0  0
  -13.5354  204.8305  115.4663 C   0  0  0  0  0  0  0  0  0  0  0  0
   -9.7009  204.4947  121.1303 C   0  0  0  0  0  0  0  0  0  0  0  0
   -8.5414  205.3076  119.9797 S   0  0  0  0  0  0  0  0  0  0  0  0
   -9.6631  206.1401  118.9721 C   0  0  0  0  0  0  0  0  0  0  0  0
  -10.4676  207.1102  119.3292 N   0  0  0  0  0  0  0  0  0  0  0  0
  -11.1871  207.4347  118.2029 N   0  0  0  0  0  0  0  0  0  0  0  0
  -10.8312  206.6738  117.1749 N   0  0  0  0  0  0  0  0  0  0  0  0
   -9.8751  205.8580  117.6537 N   0  0  0  0  0  0  0  0  0  0  0  0
   -9.2754  204.8593  116.8160 C   0  0  0  0  0  0  0  0  0  0  0  0
 11  5  1  0  0  0
 11 12  1  0  0  0
  5  6  1  0  0  0
  5 10  2  0  0  0
  6  7  2  0  0  0
  7  8  1  0  0  0
  7  1  1  0  0  0
  8  9  2  0  0  0
  9 10  1  0  0  0
  1  2  1  0  0  0
  2  3  2  0  0  0
  2 13  1  0  0  0
 13 14  1  0  0  0
 14 15  1  0  0  0
 15 16  2  0  0  0
 15 19  1  0  0  0
 16 17  1  0  0  0
 17 18  2  0  0  0
 18 19  1  0  0  0
 19 20  1  0  0  0
  1  4  1  0  0  0
M  END
> <minimizedAffinity>
-0.00036

$$$$



 20 21  0  0  0  0  0  0  0  0999 V2000
  -13.5983  203.0300  118.0217 N   0  0  0  0  0  0  0  0  0  0  0  0
  -14.2763  202.9318  119.2281 C   0  0  0  0  0  0  0  0  0  0  0  0
  -14.8608  203.8488  119.8054 O   0  0  0  0  0  0  0  0  0  0  0  0
  -13.1103  202.2320  117.7146 H   0  0  0  0  0  0  0  0  0  0  0  0
  -14.5610  205.7205  115.6073 C   0  0  0  0  0  0  0  0  0  0  0  0
  -14.6238  204.5743  116.4014 C   0  0  0  0  0  0  0  0  0  0  0  0
  -13.5464  204.1767  117.1936 C   0  0  0  0  0  0  0  0  0  0  0  0
  -12.3675  204.9292  117.1590 C   0  0  0  0  0  0  0  0  0  0  0  0
  -12.3006  206.0903  116.3797 C   0  0  0  0  0  0  0  0  0  0  0  0
  -13.3941  206.4856  115.6131 C   0  0  0  0  0  0  0  0  0  0  0  0
  -15.5691  206.1755  114.7996 O   0  0  0  0  0  0  0  0  0  0  0  0
  -16.7492  205.3700  114.7596 C   0  0  0  0  0  0  0  0  0  0  0  0
  -14.2369  201.5452  119.8541 C   0  0  0  0  0  0  0  0  0  0  0  0
  -15.7794  200.6455  119.4794 S   0  0  0  0  0  0  0  0  0  0  0  0
  -15.9269  201.0025  117.8008 C   0  0  0  0  0  0  0  0  0  0  0  0
  -15.1147  200.6254  116.8447 N   0  0  0  0  0  0  0  0  0  0  0  0
  -15.6205  201.1686  115.6869 N   0  0  0  0  0  0  0  0  0  0  0  0
  -16.7216  201.8689  115.9308 N   0  0  0  0  0  0  0  0  0  0  0  0
  -16.9172  201.7687  117.2576 N   0  0  0  0  0  0  0  0  0  0  0  0
  -18.0139  202.4433  117.8908 C   0  0  0  0  0  0  0  0  0  0  0  0
 11  5  1  0  0  0
 11 12  1  0  0  0
  5  6  1  0  0  0
  5 10  2  0  0  0
  6  7  2  0  0  0
  7  8  1  0  0  0
  7  1  1  0  0  0
  8  9  2  0  0  0
  9 10  1  0  0  0
  1  2  1  0  0  0
  2  3  2  0  0  0
  2 13  1  0  0  0
 13 14  1  0  0  0
 14 15  1  0  0  0
 15 16  2  0  0  0
 15 19  1  0  0  0
 16 17  1  0  0  0
 17 18  2  0  0  0
 18 19  1  0  0  0
 19 20  1  0  0  0
  1  4  1  0  0  0
M  END
> <minimizedAffinity>
-0.00029

$$$$



 20 21  0  0  0  0  0  0  0  0999 V2000
  -11.7184  202.1414  115.6510 N   0  0  0  0  0  0  0  0  0  0  0  0
  -11.4618  201.6876  114.3653 C   0  0  0  0  0  0  0  0  0  0  0  0
  -11.9056  202.1741  113.3250 O   0  0  0  0  0  0  0  0  0  0  0  0
  -11.3582  201.6078  116.3958 H   0  0  0  0  0  0  0  0  0  0  0  0
  -12.6714  205.7230  116.1595 C   0  0  0  0  0  0  0  0  0  0  0  0
  -11.9239  204.5873  115.8438 C   0  0  0  0  0  0  0  0  0  0  0  0
  -12.4527  203.3041  115.9859 C   0  0  0  0  0  0  0  0  0  0  0  0
  -13.7497  203.1592  116.4902 C   0  0  0  0  0  0  0  0  0  0  0  0
  -14.5139  204.2924  116.7927 C   0  0  0  0  0  0  0  0  0  0  0  0
  -13.9785  205.5667  116.6225 C   0  0  0  0  0  0  0  0  0  0  0  0
  -12.2261  207.0138  116.0535 O   0  0  0  0  0  0  0  0  0  0  0  0
  -10.8727  207.1742  115.6224 C   0  0  0  0  0  0  0  0  0  0  0  0
  -10.5628  200.4610  114.3051 C   0  0  0  0  0  0  0  0  0  0  0  0
   -8.8461  200.9609  113.9413 S   0  0  0  0  0  0  0  0  0  0  0  0
   -8.6898  202.2870  115.0292 C   0  0  0  0  0  0  0  0  0  0  0  0
   -8.7204  202.2354  116.3377 N   0  0  0  0  0  0  0  0  0  0  0  0
   -8.5851  203.5348  116.7677 N   0  0  0  0  0  0  0  0  0  0  0  0
   -8.4770  204.3678  115.7396 N   0  0  0  0  0  0  0  0  0  0  0  0
   -8.5436  203.5886  114.6454 N   0  0  0  0  0  0  0  0  0  0  0  0
   -8.4962  204.1631  113.3314 C   0  0  0  0  0  0  0  0  0  0  0  0
 11  5  1  0  0  0
 11 12  1  0  0  0
  5  6  1  0  0  0
  5 10  2  0  0  0
  6  7  2  0  0  0
  7  8  1  0  0  0
  7  1  1  0  0  0
  8  9  2  0  0  0
  9 10  1  0  0  0
  1  2  1  0  0  0
  2  3  2  0  0  0
  2 13  1  0  0  0
 13 14  1  0  0  0
 14 15  1  0  0  0
 15 16  2  0  0  0
 15 19  1  0  0  0
 16 17  1  0  0  0
 17 18  2  0  0  0
 18 19  1  0  0  0
 19 20  1  0  0  0
  1  4  1  0  0  0
M  END
> <minimizedAffinity>
-0.00013

$$$$
