ZINC14969940


 37 41  0  0  0  0  0  0  0  0999 V2000
   -7.6904  203.1451  120.1989 C   0  0  0  0  0  0  0  0  0  0  0  0
   -7.5361  202.0615  119.5354 N   0  0  0  0  0  0  0  0  0  0  0  0
   -7.6973  201.9898  118.0903 C   0  0  0  0  0  0  0  0  0  0  0  0
   -8.4344  200.7168  117.6748 C   0  0  0  0  0  0  0  0  0  0  0  0
   -8.8040  200.7977  116.2243 C   0  0  0  0  0  0  0  0  0  0  0  0
   -8.8155  201.8795  115.5042 C   0  0  0  0  0  0  0  0  0  0  0  0
   -9.2152  201.7981  114.0612 C   0  0  0  0  0  0  0  0  0  0  0  0
   -8.3486  202.6987  113.1757 C   0  0  0  0  0  0  0  0  0  0  0  0
   -9.1332  204.0251  112.9890 C   0  0  0  0  0  0  0  0  0  0  0  0
   -8.8868  204.8649  114.2222 C   0  0  0  0  0  0  0  0  0  0  0  0
   -9.3838  204.2816  115.5246 C   0  0  0  0  0  0  0  0  0  0  0  0
   -8.4313  203.2384  116.0827 C   0  0  0  0  0  0  0  0  0  0  0  0
   -8.5311  203.1856  117.6043 C   0  0  0  0  0  0  0  0  0  0  0  0
   -7.9423  204.4540  118.2287 C   0  0  0  0  0  0  0  0  0  0  0  0
   -8.0363  204.3226  119.6530 O   0  0  0  0  0  0  0  0  0  0  0  0
   -9.9914  203.0106  118.0261 C   0  0  0  0  0  0  0  0  0  0  0  0
   -8.5655  204.7336  111.7610 C   0  0  0  0  0  0  0  0  0  0  0  0
   -9.2785  206.0397  111.3866 C   0  0  0  0  0  0  0  0  0  0  0  0
   -8.8863  206.2402  109.8989 C   0  0  0  0  0  0  0  0  0  0  0  0
   -8.5274  204.8399  109.3486 C   0  0  0  0  0  0  0  0  0  0  0  0
   -8.7905  203.8655  110.4982 C   0  0  0  0  0  0  0  0  0  0  0  0
   -7.7892  202.7183  110.5954 C   0  0  0  0  0  0  0  0  0  0  0  0
   -8.1412  201.9761  111.8681 C   0  0  0  0  0  0  0  0  0  0  0  0
   -8.2589  200.7747  111.8349 O   0  0  0  0  0  0  0  0  0  0  0  0
  -10.2233  203.3308  110.4525 C   0  0  0  0  0  0  0  0  0  0  0  0
   -7.7559  207.1092  109.8027 O   0  0  0  0  0  0  0  0  0  0  0  0
   -7.0705  204.9925  111.9578 C   0  0  0  0  0  0  0  0  0  0  0  0
   -6.9946  206.7102  110.2939 H   0  0  0  0  0  0  0  0  0  0  0  0
   -7.4075  201.6367  122.1467 C   0  0  0  0  0  0  0  0  0  0  0  0
   -7.4759  203.0953  121.6898 C   0  0  0  0  0  0  0  0  0  0  0  0
   -8.6376  203.7970  122.3960 C   0  0  0  0  0  0  0  0  0  0  0  0
   -9.4172  204.4981  108.1518 C   0  0  0  0  0  0  0  0  0  0  0  0
   -8.5419  204.0836  106.9673 C   0  0  0  0  0  0  0  0  0  0  0  0
  -11.4670  205.2775  107.1253 C   0  0  0  0  0  0  0  0  0  0  0  0
  -10.2122  205.6852  107.7849 N   0  0  0  0  0  0  0  0  0  0  0  0
   -9.6666  206.2775  107.1426 H   0  0  0  0  0  0  0  0  0  0  0  0
  -10.4332  206.2240  108.6344 H   0  0  0  0  0  0  0  0  0  0  0  0
 29 30  1  0  0  0
 30 31  1  0  0  0
 30  1  1  0  0  0
  1 15  1  0  0  0
  1  2  2  0  0  0
  2  3  1  0  0  0
  3 13  1  0  0  0
  3  4  1  0  0  0
  4  5  1  0  0  0
  5  6  2  0  0  0
  6 12  1  0  0  0
  6  7  1  0  0  0
  7  8  1  0  0  0
  8 23  1  0  0  0
  8  9  1  0  0  0
  9 10  1  0  0  0
  9 17  1  0  0  0
 10 11  1  0  0  0
 11 12  1  0  0  0
 12 13  1  0  0  0
 13 14  1  0  0  0
 13 16  1  0  0  0
 14 15  1  0  0  0
 17 21  1  0  0  0
 17 18  1  0  0  0
 17 27  1  0  0  0
 18 19  1  0  0  0
 19 20  1  0  0  0
 19 26  1  0  0  0
 20 21  1  0  0  0
 20 32  1  0  0  0
 21 22  1  0  0  0
 21 25  1  0  0  0
 22 23  1  0  0  0
 23 24  2  0  0  0
 32 33  1  0  0  0
 32 35  1  0  0  0
 34 35  1  0  0  0
 26 28  1  0  0  0
 35 36  1  0  0  0
 35 37  1  0  0  0
M  CHG 1  35   1
M  END
> <minimizedAffinity>
-0.00013

$$$$
ZINC14969940


 37 41  0  0  0  0  0  0  0  0999 V2000
  -17.0194  203.9336  122.9854 C   0  0  0  0  0  0  0  0  0  0  0  0
  -17.3978  204.7275  122.0554 N   0  0  0  0  0  0  0  0  0  0  0  0
  -16.5582  205.0664  120.9153 C   0  0  0  0  0  0  0  0  0  0  0  0
  -16.6633  206.5513  120.5683 C   0  0  0  0  0  0  0  0  0  0  0  0
  -15.6073  206.9123  119.5676 C   0  0  0  0  0  0  0  0  0  0  0  0
  -14.5591  206.1994  119.2813 C   0  0  0  0  0  0  0  0  0  0  0  0
  -13.5867  206.7006  118.2555 C   0  0  0  0  0  0  0  0  0  0  0  0
  -13.0710  205.5726  117.3568 C   0  0  0  0  0  0  0  0  0  0  0  0
  -11.7143  205.1132  117.9551 C   0  0  0  0  0  0  0  0  0  0  0  0
  -12.0276  204.1700  119.0949 C   0  0  0  0  0  0  0  0  0  0  0  0
  -12.7968  204.7679  120.2501 C   0  0  0  0  0  0  0  0  0  0  0  0
  -14.2845  204.8596  119.9583 C   0  0  0  0  0  0  0  0  0  0  0  0
  -15.0877  204.7741  121.2527 C   0  0  0  0  0  0  0  0  0  0  0  0
  -15.0124  203.3632  121.8433 C   0  0  0  0  0  0  0  0  0  0  0  0
  -15.8130  203.3451  123.0322 O   0  0  0  0  0  0  0  0  0  0  0  0
  -14.5677  205.8030  122.2587 C   0  0  0  0  0  0  0  0  0  0  0  0
  -10.9521  204.3663  116.8628 C   0  0  0  0  0  0  0  0  0  0  0  0
   -9.5470  203.8989  117.2653 C   0  0  0  0  0  0  0  0  0  0  0  0
   -8.8450  203.6791  115.8993 C   0  0  0  0  0  0  0  0  0  0  0  0
   -9.5948  204.5629  114.8749 C   0  0  0  0  0  0  0  0  0  0  0  0
  -10.6522  205.3204  115.6801 C   0  0  0  0  0  0  0  0  0  0  0  0
  -11.9794  205.5157  114.9534 C   0  0  0  0  0  0  0  0  0  0  0  0
  -12.9127  206.1418  115.9690 C   0  0  0  0  0  0  0  0  0  0  0  0
  -13.5461  207.1224  115.6596 O   0  0  0  0  0  0  0  0  0  0  0  0
  -10.1089  206.6591  116.1839 C   0  0  0  0  0  0  0  0  0  0  0  0
   -8.9332  202.3046  115.5183 O   0  0  0  0  0  0  0  0  0  0  0  0
  -11.7794  203.1748  116.3764 C   0  0  0  0  0  0  0  0  0  0  0  0
   -9.8862  202.0466  115.4449 H   0  0  0  0  0  0  0  0  0  0  0  0
  -19.1521  204.6362  124.0378 C   0  0  0  0  0  0  0  0  0  0  0  0
  -17.9881  203.6454  124.1034 C   0  0  0  0  0  0  0  0  0  0  0  0
  -17.2722  203.7878  125.4480 C   0  0  0  0  0  0  0  0  0  0  0  0
   -8.6259  205.5472  114.2166 C   0  0  0  0  0  0  0  0  0  0  0  0
   -8.7410  205.4357  112.6951 C   0  0  0  0  0  0  0  0  0  0  0  0
   -6.3985  206.4257  114.5763 C   0  0  0  0  0  0  0  0  0  0  0  0
   -7.2484  205.2214  114.6314 N   0  0  0  0  0  0  0  0  0  0  0  0
   -6.8623  204.5030  114.0024 H   0  0  0  0  0  0  0  0  0  0  0  0
   -7.2593  204.8558  115.5943 H   0  0  0  0  0  0  0  0  0  0  0  0
 29 30  1  0  0  0
 30 31  1  0  0  0
 30  1  1  0  0  0
  1 15  1  0  0  0
  1  2  2  0  0  0
  2  3  1  0  0  0
  3 13  1  0  0  0
  3  4  1  0  0  0
  4  5  1  0  0  0
  5  6  2  0  0  0
  6 12  1  0  0  0
  6  7  1  0  0  0
  7  8  1  0  0  0
  8 23  1  0  0  0
  8  9  1  0  0  0
  9 10  1  0  0  0
  9 17  1  0  0  0
 10 11  1  0  0  0
 11 12  1  0  0  0
 12 13  1  0  0  0
 13 14  1  0  0  0
 13 16  1  0  0  0
 14 15  1  0  0  0
 17 21  1  0  0  0
 17 18  1  0  0  0
 17 27  1  0  0  0
 18 19  1  0  0  0
 19 20  1  0  0  0
 19 26  1  0  0  0
 20 21  1  0  0  0
 20 32  1  0  0  0
 21 22  1  0  0  0
 21 25  1  0  0  0
 22 23  1  0  0  0
 23 24  2  0  0  0
 32 33  1  0  0  0
 32 35  1  0  0  0
 34 35  1  0  0  0
 26 28  1  0  0  0
 35 36  1  0  0  0
 35 37  1  0  0  0
M  CHG 1  35   1
M  END
> <minimizedAffinity>
-0.00013

$$$$
ZINC14969940


 37 41  0  0  0  0  0  0  0  0999 V2000
   -8.7494  203.1918  119.5208 C   0  0  0  0  0  0  0  0  0  0  0  0
   -9.8819  203.6606  119.8899 N   0  0  0  0  0  0  0  0  0  0  0  0
  -10.8047  204.3124  118.9718 C   0  0  0  0  0  0  0  0  0  0  0  0
  -11.4484  205.5433  119.6097 C   0  0  0  0  0  0  0  0  0  0  0  0
  -12.1871  206.3253  118.5658 C   0  0  0  0  0  0  0  0  0  0  0  0
  -12.0442  206.1973  117.2804 C   0  0  0  0  0  0  0  0  0  0  0  0
  -12.8557  207.0603  116.3608 C   0  0  0  0  0  0  0  0  0  0  0  0
  -13.3512  206.2842  115.1367 C   0  0  0  0  0  0  0  0  0  0  0  0
  -12.3403  206.5667  113.9930 C   0  0  0  0  0  0  0  0  0  0  0  0
  -11.1622  205.6419  114.2023 C   0  0  0  0  0  0  0  0  0  0  0  0
  -10.3882  205.8434  115.4844 C   0  0  0  0  0  0  0  0  0  0  0  0
  -11.0724  205.1899  116.6726 C   0  0  0  0  0  0  0  0  0  0  0  0
  -10.0431  204.7842  117.7233 C   0  0  0  0  0  0  0  0  0  0  0  0
   -9.1915  203.6144  117.2220 C   0  0  0  0  0  0  0  0  0  0  0  0
   -8.2744  203.2640  118.2665 O   0  0  0  0  0  0  0  0  0  0  0  0
   -9.1553  205.9801  118.0735 C   0  0  0  0  0  0  0  0  0  0  0  0
  -13.0278  206.2343  112.6706 C   0  0  0  0  0  0  0  0  0  0  0  0
  -12.1879  206.5245  111.4196 C   0  0  0  0  0  0  0  0  0  0  0  0
  -13.2522  206.6113  110.2939 C   0  0  0  0  0  0  0  0  0  0  0  0
  -14.5887  206.9745  110.9827 C   0  0  0  0  0  0  0  0  0  0  0  0
  -14.2521  207.1603  112.4634 C   0  0  0  0  0  0  0  0  0  0  0  0
  -15.3253  206.6556  113.4233 C   0  0  0  0  0  0  0  0  0  0  0  0
  -14.7317  206.7961  114.8098 C   0  0  0  0  0  0  0  0  0  0  0  0
  -15.3806  207.3322  115.6758 O   0  0  0  0  0  0  0  0  0  0  0  0
  -13.8928  208.6156  112.7701 C   0  0  0  0  0  0  0  0  0  0  0  0
  -13.3689  205.3505  109.6314 O   0  0  0  0  0  0  0  0  0  0  0  0
  -13.4737  204.7709  112.6723 C   0  0  0  0  0  0  0  0  0  0  0  0
  -13.6384  204.6603  110.2879 H   0  0  0  0  0  0  0  0  0  0  0  0
   -8.4509  202.8199  121.9543 C   0  0  0  0  0  0  0  0  0  0  0  0
   -7.8911  202.5209  120.5621 C   0  0  0  0  0  0  0  0  0  0  0  0
   -6.4599  203.0523  120.4629 C   0  0  0  0  0  0  0  0  0  0  0  0
  -15.1474  208.2743  110.4004 C   0  0  0  0  0  0  0  0  0  0  0  0
  -16.5943  208.0531  109.9548 C   0  0  0  0  0  0  0  0  0  0  0  0
  -14.3931  210.1368  109.0496 C   0  0  0  0  0  0  0  0  0  0  0  0
  -14.3305  208.6753  109.2396 N   0  0  0  0  0  0  0  0  0  0  0  0
  -14.6844  208.2064  108.3935 H   0  0  0  0  0  0  0  0  0  0  0  0
  -13.3524  208.3937  109.3969 H   0  0  0  0  0  0  0  0  0  0  0  0
 29 30  1  0  0  0
 30 31  1  0  0  0
 30  1  1  0  0  0
  1 15  1  0  0  0
  1  2  2  0  0  0
  2  3  1  0  0  0
  3 13  1  0  0  0
  3  4  1  0  0  0
  4  5  1  0  0  0
  5  6  2  0  0  0
  6 12  1  0  0  0
  6  7  1  0  0  0
  7  8  1  0  0  0
  8 23  1  0  0  0
  8  9  1  0  0  0
  9 10  1  0  0  0
  9 17  1  0  0  0
 10 11  1  0  0  0
 11 12  1  0  0  0
 12 13  1  0  0  0
 13 14  1  0  0  0
 13 16  1  0  0  0
 14 15  1  0  0  0
 17 21  1  0  0  0
 17 18  1  0  0  0
 17 27  1  0  0  0
 18 19  1  0  0  0
 19 20  1  0  0  0
 19 26  1  0  0  0
 20 21  1  0  0  0
 20 32  1  0  0  0
 21 22  1  0  0  0
 21 25  1  0  0  0
 22 23  1  0  0  0
 23 24  2  0  0  0
 32 33  1  0  0  0
 32 35  1  0  0  0
 34 35  1  0  0  0
 26 28  1  0  0  0
 35 36  1  0  0  0
 35 37  1  0  0  0
M  CHG 1  35   1
M  END
> <minimizedAffinity>
-0.00013

$$$$
