ZINC28537122


 36 40  0  0  0  0  0  0  0  0999 V2000
  -18.6036  200.1308  115.1062 C   0  0  0  0  0  0  0  0  0  0  0  0
  -17.9671  201.3809  114.6704 N   0  0  0  0  0  0  0  0  0  0  0  0
  -16.5979  201.1395  114.2073 C   0  0  0  0  0  0  0  0  0  0  0  0
  -15.9909  202.4485  113.6860 C   0  0  0  0  0  0  0  0  0  0  0  0
  -15.9971  203.4529  114.8454 C   0  0  0  0  0  0  0  0  0  0  0  0
  -15.3258  204.7540  114.4404 C   0  0  0  0  0  0  0  0  0  0  0  0
  -16.1659  205.5253  113.4569 C   0  0  0  0  0  0  0  0  0  0  0  0
  -17.4543  205.2793  113.2643 C   0  0  0  0  0  0  0  0  0  0  0  0
  -18.2013  204.1855  113.9762 C   0  0  0  0  0  0  0  0  0  0  0  0
  -17.4558  203.7285  115.2311 C   0  0  0  0  0  0  0  0  0  0  0  0
  -18.0624  202.4030  115.7037 C   0  0  0  0  0  0  0  0  0  0  0  0
  -17.4281  201.9759  117.0137 C   0  0  0  0  0  0  0  0  0  0  0  0
  -15.9317  202.1349  116.9972 C   0  0  0  0  0  0  0  0  0  0  0  0
  -15.2694  202.8294  116.0095 C   0  0  0  0  0  0  0  0  0  0  0  0
  -13.8862  202.9611  116.0615 C   0  0  0  0  0  0  0  0  0  0  0  0
  -13.1666  202.3912  117.1050 C   0  0  0  0  0  0  0  0  0  0  0  0
  -13.8359  201.6852  118.0913 C   0  0  0  0  0  0  0  0  0  0  0  0
  -15.2081  201.5539  118.0313 C   0  0  0  0  0  0  0  0  0  0  0  0
  -13.2347  203.6511  115.0874 O   0  0  0  0  0  0  0  0  0  0  0  0
  -18.2273  206.1244  112.2689 C   0  0  0  0  0  0  0  0  0  0  0  0
  -17.3064  206.5755  111.2187 N   0  0  0  0  0  0  0  0  0  0  0  0
  -16.0534  207.0759  111.6148 N   0  0  0  0  0  0  0  0  0  0  0  0
  -15.5002  206.5907  112.6841 C   0  0  0  0  0  0  0  0  0  0  0  0
  -18.4802  201.7507  113.8575 H   0  0  0  0  0  0  0  0  0  0  0  0
  -13.6538  204.5480  115.0852 H   0  0  0  0  0  0  0  0  0  0  0  0
  -17.5694  206.5272  110.2241 H   0  0  0  0  0  0  0  0  0  0  0  0
  -14.1649  207.1205  113.1400 C   0  0  0  0  0  0  0  0  0  0  0  0
  -13.1917  206.1275  112.9850 F   0  0  0  0  0  0  0  0  0  0  0  0
  -13.8190  208.2367  112.3710 F   0  0  0  0  0  0  0  0  0  0  0  0
  -14.2448  207.4889  114.4873 F   0  0  0  0  0  0  0  0  0  0  0  0
  -18.8263  207.3381  112.9824 C   0  0  0  0  0  0  0  0  0  0  0  0
  -20.2049  207.1553  113.1358 F   0  0  0  0  0  0  0  0  0  0  0  0
  -18.2318  207.4798  114.2407 F   0  0  0  0  0  0  0  0  0  0  0  0
  -18.5902  208.4889  112.2227 F   0  0  0  0  0  0  0  0  0  0  0  0
  -11.8144  202.5261  117.1577 O   0  0  0  0  0  0  0  0  0  0  0  0
  -11.2918  203.4567  118.1080 C   0  0  0  0  0  0  0  0  0  0  0  0
  1  2  1  0  0  0
  2 11  1  0  0  0
  2  3  1  0  0  0
  2 24  1  0  0  0
  3  4  1  0  0  0
  4  5  1  0  0  0
  5 10  1  0  0  0
  5 14  1  0  0  0
  5  6  1  0  0  0
  6  7  1  0  0  0
  7 23  1  0  0  0
  7  8  2  0  0  0
  8  9  1  0  0  0
  8 20  1  0  0  0
  9 10  1  0  0  0
 10 11  1  0  0  0
 11 12  1  0  0  0
 12 13  1  0  0  0
 13 18  2  0  0  0
 13 14  1  0  0  0
 14 15  2  0  0  0
 15 16  1  0  0  0
 15 19  1  0  0  0
 16 17  2  0  0  0
 16 35  1  0  0  0
 17 18  1  0  0  0
 35 36  1  0  0  0
 19 25  1  0  0  0
 20 21  1  0  0  0
 20 31  1  0  0  0
 21 22  1  0  0  0
 21 26  1  0  0  0
 22 23  2  0  0  0
 23 27  1  0  0  0
 27 28  1  0  0  0
 27 29  1  0  0  0
 27 30  1  0  0  0
 31 32  1  0  0  0
 31 33  1  0  0  0
 31 34  1  0  0  0
M  CHG 1   2   1
M  END
> <minimizedAffinity>
-0.00153

$$$$
ZINC28537122


 36 40  0  0  0  0  0  0  0  0999 V2000
   -7.8611  208.4592  119.8561 C   0  0  0  0  0  0  0  0  0  0  0  0
   -9.1018  207.9581  120.4621 N   0  0  0  0  0  0  0  0  0  0  0  0
   -9.8750  207.1688  119.4996 C   0  0  0  0  0  0  0  0  0  0  0  0
  -11.1218  206.5952  120.1855 C   0  0  0  0  0  0  0  0  0  0  0  0
  -11.9509  207.7793  120.6988 C   0  0  0  0  0  0  0  0  0  0  0  0
  -13.2555  207.3028  121.3141 C   0  0  0  0  0  0  0  0  0  0  0  0
  -13.0219  206.5946  122.6225 C   0  0  0  0  0  0  0  0  0  0  0  0
  -11.8902  206.7005  123.3049 C   0  0  0  0  0  0  0  0  0  0  0  0
  -10.7119  207.5048  122.8296 C   0  0  0  0  0  0  0  0  0  0  0  0
  -11.1244  208.5170  121.7597 C   0  0  0  0  0  0  0  0  0  0  0  0
   -9.8602  209.0422  121.0713 C   0  0  0  0  0  0  0  0  0  0  0  0
  -10.2193  210.1360  120.0836 C   0  0  0  0  0  0  0  0  0  0  0  0
  -11.4154  209.7727  119.2458 C   0  0  0  0  0  0  0  0  0  0  0  0
  -12.2264  208.6980  119.5353 C   0  0  0  0  0  0  0  0  0  0  0  0
  -13.3312  208.4265  118.7360 C   0  0  0  0  0  0  0  0  0  0  0  0
  -13.6199  209.2332  117.6418 C   0  0  0  0  0  0  0  0  0  0  0  0
  -12.7960  210.3076  117.3485 C   0  0  0  0  0  0  0  0  0  0  0  0
  -11.6983  210.5688  118.1427 C   0  0  0  0  0  0  0  0  0  0  0  0
  -14.1330  207.3673  119.0264 O   0  0  0  0  0  0  0  0  0  0  0  0
  -11.7534  205.9692  124.6274 C   0  0  0  0  0  0  0  0  0  0  0  0
  -12.5815  204.7580  124.5836 N   0  0  0  0  0  0  0  0  0  0  0  0
  -13.8859  204.8726  124.0712 N   0  0  0  0  0  0  0  0  0  0  0  0
  -14.1135  205.7491  123.1411 C   0  0  0  0  0  0  0  0  0  0  0  0
   -8.8619  207.3139  121.2292 H   0  0  0  0  0  0  0  0  0  0  0  0
  -14.4273  207.5174  119.9597 H   0  0  0  0  0  0  0  0  0  0  0  0
  -12.2189  203.8537  124.9174 H   0  0  0  0  0  0  0  0  0  0  0  0
  -15.5059  205.9038  122.5856 C   0  0  0  0  0  0  0  0  0  0  0  0
  -15.5299  205.4636  121.2579 F   0  0  0  0  0  0  0  0  0  0  0  0
  -16.3987  205.1411  123.3461 F   0  0  0  0  0  0  0  0  0  0  0  0
  -15.8816  207.2505  122.6373 F   0  0  0  0  0  0  0  0  0  0  0  0
  -12.2279  206.8746  125.7658 C   0  0  0  0  0  0  0  0  0  0  0  0
  -11.1209  207.3411  126.4829 F   0  0  0  0  0  0  0  0  0  0  0  0
  -12.9316  207.9610  125.2354 F   0  0  0  0  0  0  0  0  0  0  0  0
  -13.0650  206.1491  126.6204 F   0  0  0  0  0  0  0  0  0  0  0  0
  -14.7043  208.9700  116.8645 O   0  0  0  0  0  0  0  0  0  0  0  0
  -15.8407  209.8210  117.0267 C   0  0  0  0  0  0  0  0  0  0  0  0
  1  2  1  0  0  0
  2 11  1  0  0  0
  2  3  1  0  0  0
  2 24  1  0  0  0
  3  4  1  0  0  0
  4  5  1  0  0  0
  5 10  1  0  0  0
  5 14  1  0  0  0
  5  6  1  0  0  0
  6  7  1  0  0  0
  7 23  1  0  0  0
  7  8  2  0  0  0
  8  9  1  0  0  0
  8 20  1  0  0  0
  9 10  1  0  0  0
 10 11  1  0  0  0
 11 12  1  0  0  0
 12 13  1  0  0  0
 13 18  2  0  0  0
 13 14  1  0  0  0
 14 15  2  0  0  0
 15 16  1  0  0  0
 15 19  1  0  0  0
 16 17  2  0  0  0
 16 35  1  0  0  0
 17 18  1  0  0  0
 35 36  1  0  0  0
 19 25  1  0  0  0
 20 21  1  0  0  0
 20 31  1  0  0  0
 21 22  1  0  0  0
 21 26  1  0  0  0
 22 23  2  0  0  0
 23 27  1  0  0  0
 27 28  1  0  0  0
 27 29  1  0  0  0
 27 30  1  0  0  0
 31 32  1  0  0  0
 31 33  1  0  0  0
 31 34  1  0  0  0
M  CHG 1   2   1
M  END
> <minimizedAffinity>
-0.00153

$$$$
ZINC28537122


 36 40  0  0  0  0  0  0  0  0999 V2000
   -7.3746  210.2382  118.4513 C   0  0  0  0  0  0  0  0  0  0  0  0
   -8.2218  209.8401  119.5834 N   0  0  0  0  0  0  0  0  0  0  0  0
   -9.1008  208.7268  119.2157 C   0  0  0  0  0  0  0  0  0  0  0  0
   -9.9130  208.2842  120.4397 C   0  0  0  0  0  0  0  0  0  0  0  0
  -10.7389  209.4901  120.9050 C   0  0  0  0  0  0  0  0  0  0  0  0
  -11.6468  209.1124  122.0629 C   0  0  0  0  0  0  0  0  0  0  0  0
  -10.8599  208.8662  123.3231 C   0  0  0  0  0  0  0  0  0  0  0  0
   -9.6096  209.2779  123.4816 C   0  0  0  0  0  0  0  0  0  0  0  0
   -8.8358  209.9979  122.4120 C   0  0  0  0  0  0  0  0  0  0  0  0
   -9.7681  210.5896  121.3538 C   0  0  0  0  0  0  0  0  0  0  0  0
   -8.9313  210.9872  120.1332 C   0  0  0  0  0  0  0  0  0  0  0  0
   -9.8030  211.6864  119.1075 C   0  0  0  0  0  0  0  0  0  0  0  0
  -11.1141  210.9774  118.9002 C   0  0  0  0  0  0  0  0  0  0  0  0
  -11.5576  209.9767  119.7360 C   0  0  0  0  0  0  0  0  0  0  0  0
  -12.7895  209.3746  119.5055 C   0  0  0  0  0  0  0  0  0  0  0  0
  -13.5755  209.7753  118.4318 C   0  0  0  0  0  0  0  0  0  0  0  0
  -13.1212  210.7757  117.5879 C   0  0  0  0  0  0  0  0  0  0  0  0
  -11.8956  211.3658  117.8192 C   0  0  0  0  0  0  0  0  0  0  0  0
  -13.2273  208.3896  120.3346 O   0  0  0  0  0  0  0  0  0  0  0  0
   -8.9029  209.0055  124.7964 C   0  0  0  0  0  0  0  0  0  0  0  0
   -9.4460  207.7712  125.3762 N   0  0  0  0  0  0  0  0  0  0  0  0
  -10.8424  207.6055  125.3775 N   0  0  0  0  0  0  0  0  0  0  0  0
  -11.5312  208.1283  124.4095 C   0  0  0  0  0  0  0  0  0  0  0  0
   -7.6208  209.4881  120.3422 H   0  0  0  0  0  0  0  0  0  0  0  0
  -13.2191  208.7935  121.2385 H   0  0  0  0  0  0  0  0  0  0  0  0
   -8.8246  207.0500  125.7692 H   0  0  0  0  0  0  0  0  0  0  0  0
  -13.0309  207.9795  124.3951 C   0  0  0  0  0  0  0  0  0  0  0  0
  -13.4071  207.1508  123.3326 F   0  0  0  0  0  0  0  0  0  0  0  0
  -13.4547  207.4123  125.6016 F   0  0  0  0  0  0  0  0  0  0  0  0
  -13.6228  209.2373  124.2378 F   0  0  0  0  0  0  0  0  0  0  0  0
   -9.1401  210.1718  125.7578 C   0  0  0  0  0  0  0  0  0  0  0  0
   -7.9715  210.9335  125.8642 F   0  0  0  0  0  0  0  0  0  0  0  0
  -10.1771  210.9744  125.2704 F   0  0  0  0  0  0  0  0  0  0  0  0
   -9.4886  209.6738  127.0178 F   0  0  0  0  0  0  0  0  0  0  0  0
  -14.7829  209.1897  118.2112 O   0  0  0  0  0  0  0  0  0  0  0  0
  -15.9441  209.9445  118.5633 C   0  0  0  0  0  0  0  0  0  0  0  0
  1  2  1  0  0  0
  2 11  1  0  0  0
  2  3  1  0  0  0
  2 24  1  0  0  0
  3  4  1  0  0  0
  4  5  1  0  0  0
  5 10  1  0  0  0
  5 14  1  0  0  0
  5  6  1  0  0  0
  6  7  1  0  0  0
  7 23  1  0  0  0
  7  8  2  0  0  0
  8  9  1  0  0  0
  8 20  1  0  0  0
  9 10  1  0  0  0
 10 11  1  0  0  0
 11 12  1  0  0  0
 12 13  1  0  0  0
 13 18  2  0  0  0
 13 14  1  0  0  0
 14 15  2  0  0  0
 15 16  1  0  0  0
 15 19  1  0  0  0
 16 17  2  0  0  0
 16 35  1  0  0  0
 17 18  1  0  0  0
 35 36  1  0  0  0
 19 25  1  0  0  0
 20 21  1  0  0  0
 20 31  1  0  0  0
 21 22  1  0  0  0
 21 26  1  0  0  0
 22 23  2  0  0  0
 23 27  1  0  0  0
 27 28  1  0  0  0
 27 29  1  0  0  0
 27 30  1  0  0  0
 31 32  1  0  0  0
 31 33  1  0  0  0
 31 34  1  0  0  0
M  CHG 1   2   1
M  END
> <minimizedAffinity>
-0.00153

$$$$
