BDB50245912


 36 40  0  0  0  0  0  0  0  0999 V2000
  -13.9249  207.8912  117.4651 C   0  0  0  0  0  0  0  0  0  0  0  0
  -12.7207  207.3447  116.9971 C   0  0  0  0  0  0  0  0  0  0  0  0
  -11.7534  208.1422  116.3782 C   0  0  0  0  0  0  0  0  0  0  0  0
  -12.0014  209.5026  116.1999 C   0  0  0  0  0  0  0  0  0  0  0  0
  -13.1704  210.0836  116.6849 C   0  0  0  0  0  0  0  0  0  0  0  0
  -14.1226  209.2762  117.3149 C   0  0  0  0  0  0  0  0  0  0  0  0
  -11.0668  210.3130  115.3974 C   0  0  0  0  0  0  0  0  0  0  0  0
  -10.1613  210.9170  115.9582 O   0  0  0  0  0  0  0  0  0  0  0  0
  -11.3067  210.3442  114.0336 N   0  0  0  0  0  0  0  0  0  0  0  0
  -12.3822  209.6536  113.3294 C   0  0  0  0  0  0  0  0  0  0  0  0
  -12.0096  209.8063  111.8592 C   0  0  0  0  0  0  0  0  0  0  0  0
  -11.2719  211.1417  111.8143 C   0  0  0  0  0  0  0  0  0  0  0  0
  -10.4752  211.1119  113.1182 C   0  0  0  0  0  0  0  0  0  0  0  0
  -13.1628  209.7178  110.9276 N   0  0  0  0  0  0  0  0  0  0  0  0
  -13.0164  208.9075  110.3066 H   0  0  0  0  0  0  0  0  0  0  0  0
  -13.1394  210.5352  110.3016 H   0  0  0  0  0  0  0  0  0  0  0  0
  -14.5282  209.6308  111.4934 C   0  0  0  0  0  0  0  0  0  0  0  0
  -15.3057  208.3689  111.2514 C   0  0  0  0  0  0  0  0  0  0  0  0
  -15.6530  209.6188  110.4961 C   0  0  0  0  0  0  0  0  0  0  0  0
  -14.9611  207.1202  118.0060 N   0  0  0  0  0  0  0  0  0  0  0  0
  -14.7582  206.5865  118.8400 H   0  0  0  0  0  0  0  0  0  0  0  0
  -17.1404  206.6348  118.6306 N   0  0  0  0  0  0  0  0  0  0  0  0
  -16.2885  206.9086  117.6239 C   0  0  0  0  0  0  0  0  0  0  0  0
  -16.6713  207.0110  116.3391 N   0  0  0  0  0  0  0  0  0  0  0  0
  -17.9735  206.8051  116.0668 C   0  0  0  0  0  0  0  0  0  0  0  0
  -18.9093  206.4912  117.0253 C   0  0  0  0  0  0  0  0  0  0  0  0
  -18.4307  206.4234  118.3084 C   0  0  0  0  0  0  0  0  0  0  0  0
  -18.3118  206.8851  114.6541 C   0  0  0  0  0  0  0  0  0  0  0  0
  -18.4670  205.8528  113.7533 C   0  0  0  0  0  0  0  0  0  0  0  0
  -18.8215  206.3136  112.5205 N   0  0  0  0  0  0  0  0  0  0  0  0
  -18.8636  207.6268  112.6234 C   0  0  0  0  0  0  0  0  0  0  0  0
  -18.5103  208.0344  113.8999 N   0  0  0  0  0  0  0  0  0  0  0  0
  -19.2189  208.5200  111.4908 C   0  0  0  0  0  0  0  0  0  0  0  0
  -18.3494  209.4024  114.3945 C   0  0  0  0  0  0  0  0  0  0  0  0
  -19.2332  209.7318  115.6003 C   0  0  0  0  0  0  0  0  0  0  0  0
  -16.8868  209.7654  114.6463 C   0  0  0  0  0  0  0  0  0  0  0  0
 22 23  1  0  0  0
 22 27  2  0  0  0
 23 24  2  0  0  0
 23 20  1  0  0  0
 24 25  1  0  0  0
 25 26  2  0  0  0
 25 28  1  0  0  0
 26 27  1  0  0  0
 28 29  2  0  0  0
 28 32  1  0  0  0
 29 30  1  0  0  0
 30 31  2  0  0  0
 31 32  1  0  0  0
 31 33  1  0  0  0
 32 34  1  0  0  0
 34 35  1  0  0  0
 34 36  1  0  0  0
 20  1  1  0  0  0
 20 21  1  0  0  0
  1  2  1  0  0  0
  1  6  2  0  0  0
  2  3  2  0  0  0
  3  4  1  0  0  0
  4  5  2  0  0  0
  4  7  1  0  0  0
  5  6  1  0  0  0
  7  8  2  0  0  0
  7  9  1  0  0  0
  9 10  1  0  0  0
  9 13  1  0  0  0
 10 11  1  0  0  0
 11 12  1  0  0  0
 11 14  1  0  0  0
 12 13  1  0  0  0
 14 17  1  0  0  0
 14 15  1  0  0  0
 14 16  1  0  0  0
 17 18  1  0  0  0
 17 19  1  0  0  0
 18 19  1  0  0  0
M  CHG 1  14   1
M  END
> <minimizedAffinity>
-0.00140

$$$$
BDB50245912


 36 40  0  0  0  0  0  0  0  0999 V2000
  -15.5539  201.7901  120.1452 C   0  0  0  0  0  0  0  0  0  0  0  0
  -16.9409  201.6848  119.9645 C   0  0  0  0  0  0  0  0  0  0  0  0
  -17.6050  202.4340  118.9886 C   0  0  0  0  0  0  0  0  0  0  0  0
  -16.8781  203.3219  118.1966 C   0  0  0  0  0  0  0  0  0  0  0  0
  -15.4951  203.4240  118.3255 C   0  0  0  0  0  0  0  0  0  0  0  0
  -14.8424  202.6576  119.2962 C   0  0  0  0  0  0  0  0  0  0  0  0
  -17.5920  204.2381  117.2883 C   0  0  0  0  0  0  0  0  0  0  0  0
  -17.7742  203.9079  116.1234 O   0  0  0  0  0  0  0  0  0  0  0  0
  -17.9944  205.4450  117.8361 N   0  0  0  0  0  0  0  0  0  0  0  0
  -17.7828  205.8828  119.2119 C   0  0  0  0  0  0  0  0  0  0  0  0
  -18.6525  207.1287  119.3338 C   0  0  0  0  0  0  0  0  0  0  0  0
  -18.6424  207.7110  117.9230 C   0  0  0  0  0  0  0  0  0  0  0  0
  -18.6976  206.4532  117.0566 C   0  0  0  0  0  0  0  0  0  0  0  0
  -18.2096  208.0785  120.3860 N   0  0  0  0  0  0  0  0  0  0  0  0
  -18.9630  208.1618  121.0855 H   0  0  0  0  0  0  0  0  0  0  0  0
  -18.1355  209.0167  119.9679 H   0  0  0  0  0  0  0  0  0  0  0  0
  -16.9401  207.8083  121.0984 C   0  0  0  0  0  0  0  0  0  0  0  0
  -17.0134  207.5120  122.5689 C   0  0  0  0  0  0  0  0  0  0  0  0
  -16.5139  208.8470  122.0981 C   0  0  0  0  0  0  0  0  0  0  0  0
  -14.8589  201.1325  121.1678 N   0  0  0  0  0  0  0  0  0  0  0  0
  -14.8885  200.1222  121.1762 H   0  0  0  0  0  0  0  0  0  0  0  0
  -13.1116  200.7595  122.6452 N   0  0  0  0  0  0  0  0  0  0  0  0
  -14.0936  201.5894  122.2441 C   0  0  0  0  0  0  0  0  0  0  0  0
  -14.3182  202.7922  122.8013 N   0  0  0  0  0  0  0  0  0  0  0  0
  -13.5214  203.1551  123.8239 C   0  0  0  0  0  0  0  0  0  0  0  0
  -12.5137  202.3605  124.3201 C   0  0  0  0  0  0  0  0  0  0  0  0
  -12.3486  201.1592  123.6802 C   0  0  0  0  0  0  0  0  0  0  0  0
  -13.8470  204.4459  124.4105 C   0  0  0  0  0  0  0  0  0  0  0  0
  -14.5901  204.7065  125.5424 C   0  0  0  0  0  0  0  0  0  0  0  0
  -14.6520  206.0428  125.8034 N   0  0  0  0  0  0  0  0  0  0  0  0
  -13.9818  206.6324  124.8339 C   0  0  0  0  0  0  0  0  0  0  0  0
  -13.5081  205.7015  123.9231 N   0  0  0  0  0  0  0  0  0  0  0  0
  -13.8040  208.1047  124.7471 C   0  0  0  0  0  0  0  0  0  0  0  0
  -12.7976  205.9524  122.6685 C   0  0  0  0  0  0  0  0  0  0  0  0
  -11.4310  205.2676  122.5844 C   0  0  0  0  0  0  0  0  0  0  0  0
  -13.6571  205.6576  121.4401 C   0  0  0  0  0  0  0  0  0  0  0  0
 22 23  1  0  0  0
 22 27  2  0  0  0
 23 24  2  0  0  0
 23 20  1  0  0  0
 24 25  1  0  0  0
 25 26  2  0  0  0
 25 28  1  0  0  0
 26 27  1  0  0  0
 28 29  2  0  0  0
 28 32  1  0  0  0
 29 30  1  0  0  0
 30 31  2  0  0  0
 31 32  1  0  0  0
 31 33  1  0  0  0
 32 34  1  0  0  0
 34 35  1  0  0  0
 34 36  1  0  0  0
 20  1  1  0  0  0
 20 21  1  0  0  0
  1  2  1  0  0  0
  1  6  2  0  0  0
  2  3  2  0  0  0
  3  4  1  0  0  0
  4  5  2  0  0  0
  4  7  1  0  0  0
  5  6  1  0  0  0
  7  8  2  0  0  0
  7  9  1  0  0  0
  9 10  1  0  0  0
  9 13  1  0  0  0
 10 11  1  0  0  0
 11 12  1  0  0  0
 11 14  1  0  0  0
 12 13  1  0  0  0
 14 17  1  0  0  0
 14 15  1  0  0  0
 14 16  1  0  0  0
 17 18  1  0  0  0
 17 19  1  0  0  0
 18 19  1  0  0  0
M  CHG 1  14   1
M  END
> <minimizedAffinity>
-0.00102

$$$$
BDB50245912


 36 40  0  0  0  0  0  0  0  0999 V2000
  -12.7157  203.5200  114.4590 C   0  0  0  0  0  0  0  0  0  0  0  0
  -13.1507  202.9710  113.2437 C   0  0  0  0  0  0  0  0  0  0  0  0
  -12.3446  203.0047  112.1018 C   0  0  0  0  0  0  0  0  0  0  0  0
  -11.0944  203.6185  112.1658 C   0  0  0  0  0  0  0  0  0  0  0  0
  -10.6174  204.1410  113.3654 C   0  0  0  0  0  0  0  0  0  0  0  0
  -11.4287  204.0873  114.5030 C   0  0  0  0  0  0  0  0  0  0  0  0
  -10.3148  203.8111  110.9292 C   0  0  0  0  0  0  0  0  0  0  0  0
   -9.4874  202.9693  110.6035 O   0  0  0  0  0  0  0  0  0  0  0  0
  -10.5735  204.9743  110.2231 N   0  0  0  0  0  0  0  0  0  0  0  0
  -11.5374  206.0085  110.5848 C   0  0  0  0  0  0  0  0  0  0  0  0
  -11.6052  206.8911  109.3439 C   0  0  0  0  0  0  0  0  0  0  0  0
  -10.2053  206.7763  108.7468 C   0  0  0  0  0  0  0  0  0  0  0  0
   -9.8720  205.3050  108.9914 C   0  0  0  0  0  0  0  0  0  0  0  0
  -12.0383  208.2859  109.6130 N   0  0  0  0  0  0  0  0  0  0  0  0
  -12.9178  208.4565  109.1023 H   0  0  0  0  0  0  0  0  0  0  0  0
  -11.3570  208.9273  109.1830 H   0  0  0  0  0  0  0  0  0  0  0  0
  -12.2248  208.7133  111.0182 C   0  0  0  0  0  0  0  0  0  0  0  0
  -13.6127  209.0819  111.4580 C   0  0  0  0  0  0  0  0  0  0  0  0
  -12.5916  210.1568  111.2225 C   0  0  0  0  0  0  0  0  0  0  0  0
  -13.5210  203.5937  115.6023 N   0  0  0  0  0  0  0  0  0  0  0  0
  -13.8539  202.7238  115.9944 H   0  0  0  0  0  0  0  0  0  0  0  0
  -14.2063  204.3981  117.6659 N   0  0  0  0  0  0  0  0  0  0  0  0
  -13.9981  204.6651  116.3622 C   0  0  0  0  0  0  0  0  0  0  0  0
  -14.1945  205.8776  115.8156 N   0  0  0  0  0  0  0  0  0  0  0  0
  -14.6419  206.8535  116.6279 C   0  0  0  0  0  0  0  0  0  0  0  0
  -14.9108  206.6655  117.9641 C   0  0  0  0  0  0  0  0  0  0  0  0
  -14.6665  205.4018  118.4366 C   0  0  0  0  0  0  0  0  0  0  0  0
  -14.8771  208.1267  115.9645 C   0  0  0  0  0  0  0  0  0  0  0  0
  -16.0698  208.6412  115.5020 C   0  0  0  0  0  0  0  0  0  0  0  0
  -15.9044  209.8832  114.9656 N   0  0  0  0  0  0  0  0  0  0  0  0
  -14.6166  210.1481  115.0566 C   0  0  0  0  0  0  0  0  0  0  0  0
  -13.9309  209.0823  115.6172 N   0  0  0  0  0  0  0  0  0  0  0  0
  -14.0129  211.4203  114.5835 C   0  0  0  0  0  0  0  0  0  0  0  0
  -12.4867  208.9434  115.8088 C   0  0  0  0  0  0  0  0  0  0  0  0
  -12.0771  208.6940  117.2626 C   0  0  0  0  0  0  0  0  0  0  0  0
  -11.8663  207.9189  114.8602 C   0  0  0  0  0  0  0  0  0  0  0  0
 22 23  1  0  0  0
 22 27  2  0  0  0
 23 24  2  0  0  0
 23 20  1  0  0  0
 24 25  1  0  0  0
 25 26  2  0  0  0
 25 28  1  0  0  0
 26 27  1  0  0  0
 28 29  2  0  0  0
 28 32  1  0  0  0
 29 30  1  0  0  0
 30 31  2  0  0  0
 31 32  1  0  0  0
 31 33  1  0  0  0
 32 34  1  0  0  0
 34 35  1  0  0  0
 34 36  1  0  0  0
 20  1  1  0  0  0
 20 21  1  0  0  0
  1  2  1  0  0  0
  1  6  2  0  0  0
  2  3  2  0  0  0
  3  4  1  0  0  0
  4  5  2  0  0  0
  4  7  1  0  0  0
  5  6  1  0  0  0
  7  8  2  0  0  0
  7  9  1  0  0  0
  9 10  1  0  0  0
  9 13  1  0  0  0
 10 11  1  0  0  0
 11 12  1  0  0  0
 11 14  1  0  0  0
 12 13  1  0  0  0
 14 17  1  0  0  0
 14 15  1  0  0  0
 14 16  1  0  0  0
 17 18  1  0  0  0
 17 19  1  0  0  0
 18 19  1  0  0  0
M  CHG 1  14   1
M  END
> <minimizedAffinity>
-0.00096

$$$$
