ZINC14969940
 OpenBabel07192212403D

 37 41  0  0  0  0  0  0  0  0999 V2000
   -7.6904  203.1451  120.1989 C   0  0  0  0  0  0  0  0  0  0  0  0
   -7.5361  202.0615  119.5354 N   0  0  0  0  0  0  0  0  0  0  0  0
   -7.6973  201.9898  118.0903 C   0  0  1  0  0  0  0  0  0  0  0  0
   -8.4344  200.7168  117.6748 C   0  0  0  0  0  0  0  0  0  0  0  0
   -8.8040  200.7977  116.2243 C   0  0  0  0  0  0  0  0  0  0  0  0
   -8.8155  201.8795  115.5042 C   0  0  0  0  0  0  0  0  0  0  0  0
   -9.2152  201.7981  114.0612 C   0  0  0  0  0  0  0  0  0  0  0  0
   -8.3486  202.6987  113.1757 C   0  0  2  0  0  0  0  0  0  0  0  0
   -9.1332  204.0251  112.9890 C   0  0  1  0  0  0  0  0  0  0  0  0
   -8.8868  204.8649  114.2222 C   0  0  0  0  0  0  0  0  0  0  0  0
   -9.3838  204.2816  115.5246 C   0  0  0  0  0  0  0  0  0  0  0  0
   -8.4313  203.2384  116.0827 C   0  0  1  0  0  0  0  0  0  0  0  0
   -8.5311  203.1856  117.6043 C   0  0  2  0  0  0  0  0  0  0  0  0
   -7.9423  204.4540  118.2287 C   0  0  0  0  0  0  0  0  0  0  0  0
   -8.0363  204.3226  119.6530 O   0  0  0  0  0  0  0  0  0  0  0  0
   -9.9914  203.0106  118.0261 C   0  0  0  0  0  0  0  0  0  0  0  0
   -8.5655  204.7336  111.7610 C   0  0  2  0  0  0  0  0  0  0  0  0
   -9.2785  206.0397  111.3866 C   0  0  0  0  0  0  0  0  0  0  0  0
   -8.8863  206.2402  109.8989 C   0  0  2  0  0  0  0  0  0  0  0  0
   -8.5274  204.8399  109.3486 C   0  0  1  0  0  0  0  0  0  0  0  0
   -8.7905  203.8655  110.4982 C   0  0  1  0  0  0  0  0  0  0  0  0
   -7.7892  202.7183  110.5954 C   0  0  0  0  0  0  0  0  0  0  0  0
   -8.1412  201.9761  111.8681 C   0  0  0  0  0  0  0  0  0  0  0  0
   -8.2589  200.7747  111.8349 O   0  0  0  0  0  0  0  0  0  0  0  0
  -10.2233  203.3308  110.4525 C   0  0  0  0  0  0  0  0  0  0  0  0
   -7.7559  207.1092  109.8027 O   0  0  0  0  0  0  0  0  0  0  0  0
   -7.0705  204.9925  111.9578 C   0  0  0  0  0  0  0  0  0  0  0  0
   -6.9946  206.7102  110.2939 H   0  0  0  0  0  0  0  0  0  0  0  0
   -7.4075  201.6367  122.1467 C   0  0  0  0  0  0  0  0  0  0  0  0
   -7.4759  203.0953  121.6898 C   0  0  0  0  0  0  0  0  0  0  0  0
   -8.6376  203.7970  122.3960 C   0  0  0  0  0  0  0  0  0  0  0  0
   -9.4172  204.4981  108.1518 C   0  0  2  0  0  0  0  0  0  0  0  0
   -8.5419  204.0836  106.9673 C   0  0  0  0  0  0  0  0  0  0  0  0
  -11.4670  205.2775  107.1253 C   0  0  0  0  0  0  0  0  0  0  0  0
  -10.2122  205.6852  107.7849 N   0  3  0  0  0  0  0  0  0  0  0  0
   -9.6666  206.2775  107.1426 H   0  0  0  0  0  0  0  0  0  0  0  0
  -10.4332  206.2240  108.6344 H   0  0  0  0  0  0  0  0  0  0  0  0
  1 15  1  0  0  0  0
  1  2  2  0  0  0  0
  2  3  1  0  0  0  0
  3 13  1  0  0  0  0
  3  4  1  1  0  0  0
  4  5  1  0  0  0  0
  5  6  2  0  0  0  0
  6 12  1  0  0  0  0
  6  7  1  0  0  0  0
  8  7  1  1  0  0  0
  8 23  1  0  0  0  0
  8  9  1  0  0  0  0
  9 10  1  1  0  0  0
  9 17  1  0  0  0  0
 10 11  1  0  0  0  0
 12 11  1  6  0  0  0
 12 13  1  0  0  0  0
 13 14  1  0  0  0  0
 13 16  1  1  0  0  0
 14 15  1  0  0  0  0
 17 21  1  0  0  0  0
 17 18  1  0  0  0  0
 17 27  1  1  0  0  0
 18 19  1  0  0  0  0
 19 20  1  0  0  0  0
 19 26  1  1  0  0  0
 20 21  1  0  0  0  0
 20 32  1  6  0  0  0
 21 22  1  0  0  0  0
 21 25  1  6  0  0  0
 22 23  1  0  0  0  0
 23 24  2  0  0  0  0
 26 28  1  0  0  0  0
 29 30  1  0  0  0  0
 30 31  1  0  0  0  0
 30  1  1  0  0  0  0
 32 33  1  6  0  0  0
 32 35  1  0  0  0  0
 34 35  1  0  0  0  0
 35 36  1  0  0  0  0
 35 37  1  0  0  0  0
M  CHG  1  35   1
M  END
>  <minimizedAffinity>
-0.00013

$$$$
