ZINC14690834
 OpenBabel07192212403D

 37 41  0  0  0  0  0  0  0  0999 V2000
  -15.3325  208.2348  114.7353 C   0  0  0  0  0  0  0  0  0  0  0  0
  -16.0831  207.2690  115.6510 C   0  0  0  0  0  0  0  0  0  0  0  0
  -17.3619  207.9313  116.1647 C   0  0  2  0  0  0  0  0  0  0  0  0
  -17.0653  208.9426  117.2659 C   0  0  0  0  0  0  0  0  0  0  0  0
  -16.3428  208.2569  118.4212 C   0  0  0  0  0  0  0  0  0  0  0  0
  -15.0019  207.6877  117.9438 C   0  0  2  0  0  0  0  0  0  0  0  0
  -15.2258  206.7344  116.7775 C   0  0  2  0  0  0  0  0  0  0  0  0
  -13.8657  206.2399  116.2859 C   0  0  0  0  0  0  0  0  0  0  0  0
  -13.1577  205.5711  117.4396 C   0  0  0  0  0  0  0  0  0  0  0  0
  -13.3610  205.8831  118.6903 C   0  0  0  0  0  0  0  0  0  0  0  0
  -14.3739  206.9164  119.0987 C   0  0  1  0  0  0  0  0  0  0  0  0
  -13.7371  207.8594  120.1188 C   0  0  0  0  0  0  0  0  0  0  0  0
  -13.3674  207.0162  121.3411 C   0  0  0  0  0  0  0  0  0  0  0  0
  -12.2678  206.0143  120.9985 C   0  0  2  0  0  0  0  0  0  0  0  0
  -12.6073  205.1533  119.7725 C   0  0  1  0  0  0  0  0  0  0  0  0
  -13.4833  204.0137  120.3389 C   0  0  0  0  0  0  0  0  0  0  0  0
  -12.8248  203.6971  121.6991 C   0  0  0  0  0  0  0  0  0  0  0  0
  -12.2094  205.0182  122.1865 C   0  0  1  0  0  0  0  0  0  0  0  0
  -11.3026  204.5594  119.2226 C   0  0  0  0  0  0  0  0  0  0  0  0
  -10.9140  206.7181  120.8207 C   0  0  0  0  0  0  0  0  0  0  0  0
  -14.0756  208.8419  117.5657 C   0  0  0  0  0  0  0  0  0  0  0  0
  -18.2463  206.9220  116.6641 O   0  0  0  0  0  0  0  0  0  0  0  0
  -16.5292  206.0697  114.7789 C   0  0  0  0  0  0  0  0  0  0  0  0
  -17.8087  206.4326  117.4052 H   0  0  0  0  0  0  0  0  0  0  0  0
  -10.7650  204.8048  122.6393 C   0  0  1  0  0  0  0  0  0  0  0  0
  -10.5828  205.3689  124.0518 C   0  0  0  0  0  0  0  0  0  0  0  0
   -9.1548  205.0801  124.5249 C   0  0  1  0  0  0  0  0  0  0  0  0
   -8.9007  203.5717  124.4642 C   0  0  1  0  0  0  0  0  0  0  0  0
   -9.1174  203.1066  123.1304 O   0  0  0  0  0  0  0  0  0  0  0  0
  -10.4489  203.3070  122.6517 C   0  0  0  0  0  0  0  0  0  0  0  0
   -8.2248  205.7557  123.6759 O   0  0  0  0  0  0  0  0  0  0  0  0
   -8.3927  206.7307  123.7113 H   0  0  0  0  0  0  0  0  0  0  0  0
   -7.4567  203.2804  124.8779 C   0  0  0  0  0  0  0  0  0  0  0  0
   -6.6396  202.8976  123.6423 C   0  0  0  0  0  0  0  0  0  0  0  0
   -7.4367  202.1250  125.8807 C   0  0  0  0  0  0  0  0  0  0  0  0
   -6.8901  204.4451  125.4816 O   0  0  0  0  0  0  0  0  0  0  0  0
   -7.4181  204.6934  126.2815 H   0  0  0  0  0  0  0  0  0  0  0  0
  1  2  1  0  0  0  0
  2  7  1  0  0  0  0
  2  3  1  0  0  0  0
  2 23  1  0  0  0  0
  3  4  1  0  0  0  0
  3 22  1  1  0  0  0
  4  5  1  0  0  0  0
  5  6  1  0  0  0  0
  6 11  1  0  0  0  0
  6  7  1  0  0  0  0
  6 21  1  6  0  0  0
  7  8  1  6  0  0  0
  8  9  1  0  0  0  0
  9 10  2  0  0  0  0
 10 15  1  0  0  0  0
 10 11  1  0  0  0  0
 11 12  1  1  0  0  0
 12 13  1  0  0  0  0
 13 14  1  0  0  0  0
 14 18  1  0  0  0  0
 14 15  1  0  0  0  0
 14 20  1  6  0  0  0
 15 16  1  0  0  0  0
 15 19  1  6  0  0  0
 16 17  1  0  0  0  0
 18 17  1  6  0  0  0
 18 25  1  0  0  0  0
 22 24  1  0  0  0  0
 25 30  1  1  0  0  0
 25 26  1  0  0  0  0
 26 27  1  0  0  0  0
 27 28  1  0  0  0  0
 27 31  1  6  0  0  0
 28 29  1  0  0  0  0
 28 33  1  6  0  0  0
 29 30  1  0  0  0  0
 31 32  1  0  0  0  0
 33 34  1  0  0  0  0
 33 35  1  0  0  0  0
 33 36  1  0  0  0  0
 36 37  1  0  0  0  0
M  END
>  <minimizedAffinity>
-0.00114

$$$$
