BDB50293153


 26 29  0  0  0  0  0  0  0  0999 V2000
   -8.3247  204.8907  115.1468 C   0  0  0  0  0  0  0  0  0  0  0  0
   -8.5835  204.6457  116.4800 C   0  0  0  0  0  0  0  0  0  0  0  0
   -9.2804  203.4959  116.7500 C   0  0  0  0  0  0  0  0  0  0  0  0
   -9.6950  202.6421  115.7987 N   0  0  0  0  0  0  0  0  0  0  0  0
   -9.3921  202.9382  114.5245 C   0  0  0  0  0  0  0  0  0  0  0  0
   -8.7062  204.0388  114.1702 N   0  0  0  0  0  0  0  0  0  0  0  0
   -6.1912  207.8831  114.8088 N   0  0  0  0  0  0  0  0  0  0  0  0
   -6.7056  206.8701  115.5059 C   0  0  0  0  0  0  0  0  0  0  0  0
   -7.5825  206.0686  114.7452 C   0  0  0  0  0  0  0  0  0  0  0  0
   -6.7067  207.7217  113.5756 N   0  0  0  0  0  0  0  0  0  0  0  0
   -7.5466  206.6241  113.4810 C   0  0  0  0  0  0  0  0  0  0  0  0
   -8.1037  206.3410  112.2104 C   0  0  0  0  0  0  0  0  0  0  0  0
   -7.8218  207.1506  111.1830 C   0  0  0  0  0  0  0  0  0  0  0  0
   -6.9274  208.3000  111.4558 C   0  0  0  0  0  0  0  0  0  0  0  0
   -6.3771  208.5931  112.5901 N   0  0  0  0  0  0  0  0  0  0  0  0
   -9.7722  202.1142  113.4645 N   0  0  0  0  0  0  0  0  0  0  0  0
  -10.2214  201.2853  113.8298 H   0  0  0  0  0  0  0  0  0  0  0  0
   -9.6540  202.2112  112.0716 C   0  0  0  0  0  0  0  0  0  0  0  0
  -10.1163  203.3015  111.3244 C   0  0  0  0  0  0  0  0  0  0  0  0
   -9.9665  203.3257  109.9295 C   0  0  0  0  0  0  0  0  0  0  0  0
   -9.3552  202.2658  109.2533 C   0  0  0  0  0  0  0  0  0  0  0  0
   -8.8920  201.1768  109.9846 C   0  0  0  0  0  0  0  0  0  0  0  0
   -9.0419  201.1535  111.3752 C   0  0  0  0  0  0  0  0  0  0  0  0
  -10.4572  204.4792  109.1699 N   0  0  0  0  0  0  0  0  0  0  0  0
  -10.7106  204.3169  107.9682 O   0  0  0  0  0  0  0  0  0  0  0  0
  -10.5919  205.5519  109.7757 O   0  0  0  0  0  0  0  0  0  0  0  0
  7  8  2  0  0  0
  7 10  1  0  0  0
  8  9  1  0  0  0
  9 11  2  0  0  0
  9  1  1  0  0  0
 10 11  1  0  0  0
 10 15  1  0  0  0
 11 12  1  0  0  0
 12 13  2  0  0  0
 13 14  1  0  0  0
 14 15  2  0  0  0
  1  2  1  0  0  0
  1  6  2  0  0  0
  2  3  2  0  0  0
  3  4  1  0  0  0
  4  5  2  0  0  0
  5  6  1  0  0  0
  5 16  1  0  0  0
 16 18  1  0  0  0
 16 17  1  0  0  0
 18 19  1  0  0  0
 18 23  2  0  0  0
 19 20  2  0  0  0
 20 21  1  0  0  0
 20 24  1  0  0  0
 21 22  2  0  0  0
 22 23  1  0  0  0
 24 25  1  0  0  0
 24 26  2  0  0  0
M  CHG 1  24   1
M  CHG 1  25  -1
M  END
> <minimizedAffinity>
-0.00007

$$$$
BDB50293153


 26 29  0  0  0  0  0  0  0  0999 V2000
   -8.9449  205.6872  113.1966 C   0  0  0  0  0  0  0  0  0  0  0  0
   -9.9494  205.9606  112.2907 C   0  0  0  0  0  0  0  0  0  0  0  0
  -10.5461  207.1891  112.4156 C   0  0  0  0  0  0  0  0  0  0  0  0
  -10.1943  208.0903  113.3483 N   0  0  0  0  0  0  0  0  0  0  0  0
   -9.1972  207.7605  114.1850 C   0  0  0  0  0  0  0  0  0  0  0  0
   -8.5519  206.5825  114.1289 N   0  0  0  0  0  0  0  0  0  0  0  0
   -7.3694  202.4491  112.3887 N   0  0  0  0  0  0  0  0  0  0  0  0
   -8.1024  203.5180  112.0773 C   0  0  0  0  0  0  0  0  0  0  0  0
   -8.2340  204.4254  113.1493 C   0  0  0  0  0  0  0  0  0  0  0  0
   -6.9897  202.6767  113.6601 N   0  0  0  0  0  0  0  0  0  0  0  0
   -7.4766  203.8720  114.1633 C   0  0  0  0  0  0  0  0  0  0  0  0
   -7.0942  204.2257  115.4799 C   0  0  0  0  0  0  0  0  0  0  0  0
   -6.3172  203.3886  116.1771 C   0  0  0  0  0  0  0  0  0  0  0  0
   -5.9034  202.1347  115.5048 C   0  0  0  0  0  0  0  0  0  0  0  0
   -6.2076  201.7722  114.3001 N   0  0  0  0  0  0  0  0  0  0  0  0
   -8.7541  208.6281  115.1840 N   0  0  0  0  0  0  0  0  0  0  0  0
   -9.2481  209.5069  115.1068 H   0  0  0  0  0  0  0  0  0  0  0  0
   -7.8081  208.5190  116.2120 C   0  0  0  0  0  0  0  0  0  0  0  0
   -7.8124  207.4975  117.1697 C   0  0  0  0  0  0  0  0  0  0  0  0
   -6.8333  207.4567  118.1740 C   0  0  0  0  0  0  0  0  0  0  0  0
   -5.8337  208.4315  118.2440 C   0  0  0  0  0  0  0  0  0  0  0  0
   -5.8190  209.4516  117.2982 C   0  0  0  0  0  0  0  0  0  0  0  0
   -6.7956  209.4915  116.2974 C   0  0  0  0  0  0  0  0  0  0  0  0
   -6.8582  206.3761  119.1640 N   0  0  0  0  0  0  0  0  0  0  0  0
   -6.2955  206.5718  120.2501 O   0  0  0  0  0  0  0  0  0  0  0  0
   -7.4435  205.3279  118.8568 O   0  0  0  0  0  0  0  0  0  0  0  0
  7  8  2  0  0  0
  7 10  1  0  0  0
  8  9  1  0  0  0
  9 11  2  0  0  0
  9  1  1  0  0  0
 10 11  1  0  0  0
 10 15  1  0  0  0
 11 12  1  0  0  0
 12 13  2  0  0  0
 13 14  1  0  0  0
 14 15  2  0  0  0
  1  2  1  0  0  0
  1  6  2  0  0  0
  2  3  2  0  0  0
  3  4  1  0  0  0
  4  5  2  0  0  0
  5  6  1  0  0  0
  5 16  1  0  0  0
 16 18  1  0  0  0
 16 17  1  0  0  0
 18 19  1  0  0  0
 18 23  2  0  0  0
 19 20  2  0  0  0
 20 21  1  0  0  0
 20 24  1  0  0  0
 21 22  2  0  0  0
 22 23  1  0  0  0
 24 25  1  0  0  0
 24 26  2  0  0  0
M  CHG 1  24   1
M  CHG 1  25  -1
M  END
> <minimizedAffinity>
-0.00001

$$$$
BDB50293153


 26 29  0  0  0  0  0  0  0  0999 V2000
  -15.8439  202.6036  119.2519 C   0  0  0  0  0  0  0  0  0  0  0  0
  -15.0565  201.5072  118.9653 C   0  0  0  0  0  0  0  0  0  0  0  0
  -14.4802  200.8889  120.0453 C   0  0  0  0  0  0  0  0  0  0  0  0
  -14.6554  201.2999  121.3126 N   0  0  0  0  0  0  0  0  0  0  0  0
  -15.4485  202.3642  121.5158 C   0  0  0  0  0  0  0  0  0  0  0  0
  -16.0594  203.0252  120.5172 N   0  0  0  0  0  0  0  0  0  0  0  0
  -17.4644  203.8285  116.1706 N   0  0  0  0  0  0  0  0  0  0  0  0
  -16.8406  202.8936  116.8874 C   0  0  0  0  0  0  0  0  0  0  0  0
  -16.5149  203.3261  118.1901 C   0  0  0  0  0  0  0  0  0  0  0  0
  -17.5792  204.8654  117.0216 N   0  0  0  0  0  0  0  0  0  0  0  0
  -17.0313  204.6050  118.2670 C   0  0  0  0  0  0  0  0  0  0  0  0
  -17.1428  205.6182  119.2498 C   0  0  0  0  0  0  0  0  0  0  0  0
  -17.7361  206.7732  118.9268 C   0  0  0  0  0  0  0  0  0  0  0  0
  -18.2458  206.9054  117.5418 C   0  0  0  0  0  0  0  0  0  0  0  0
  -18.1874  206.0064  116.6125 N   0  0  0  0  0  0  0  0  0  0  0  0
  -15.6983  202.8658  122.7937 N   0  0  0  0  0  0  0  0  0  0  0  0
  -15.2548  202.2696  123.4794 H   0  0  0  0  0  0  0  0  0  0  0  0
  -16.4078  203.9728  123.2782 C   0  0  0  0  0  0  0  0  0  0  0  0
  -16.1780  205.2893  122.8603 C   0  0  0  0  0  0  0  0  0  0  0  0
  -16.9265  206.3488  123.3950 C   0  0  0  0  0  0  0  0  0  0  0  0
  -17.9159  206.1177  124.3553 C   0  0  0  0  0  0  0  0  0  0  0  0
  -18.1534  204.8139  124.7787 C   0  0  0  0  0  0  0  0  0  0  0  0
  -17.4065  203.7584  124.2451 C   0  0  0  0  0  0  0  0  0  0  0  0
  -16.6682  207.7180  122.9400 N   0  0  0  0  0  0  0  0  0  0  0  0
  -16.9987  208.6493  123.6871 O   0  0  0  0  0  0  0  0  0  0  0  0
  -16.1315  207.8646  121.8327 O   0  0  0  0  0  0  0  0  0  0  0  0
  7  8  2  0  0  0
  7 10  1  0  0  0
  8  9  1  0  0  0
  9 11  2  0  0  0
  9  1  1  0  0  0
 10 11  1  0  0  0
 10 15  1  0  0  0
 11 12  1  0  0  0
 12 13  2  0  0  0
 13 14  1  0  0  0
 14 15  2  0  0  0
  1  2  1  0  0  0
  1  6  2  0  0  0
  2  3  2  0  0  0
  3  4  1  0  0  0
  4  5  2  0  0  0
  5  6  1  0  0  0
  5 16  1  0  0  0
 16 18  1  0  0  0
 16 17  1  0  0  0
 18 19  1  0  0  0
 18 23  2  0  0  0
 19 20  2  0  0  0
 20 21  1  0  0  0
 20 24  1  0  0  0
 21 22  2  0  0  0
 22 23  1  0  0  0
 24 25  1  0  0  0
 24 26  2  0  0  0
M  CHG 1  24   1
M  CHG 1  25  -1
M  END
> <minimizedAffinity>
-0.00001

$$$$
