BDB50263147
 OpenBabel07192212403D

 33 36  0  0  0  0  0  0  0  0999 V2000
   -7.5748  209.2624  113.3122 N   0  0  0  0  0  0  0  0  0  0  0  0
   -7.4702  210.2377  113.0673 H   0  0  0  0  0  0  0  0  0  0  0  0
   -7.0794  206.9031  109.9843 C   0  0  0  0  0  0  0  0  0  0  0  0
   -8.1705  206.7382  110.8072 C   0  0  0  0  0  0  0  0  0  0  0  0
   -8.3818  207.5189  111.8876 N   0  0  0  0  0  0  0  0  0  0  0  0
   -7.4666  208.4655  112.1733 C   0  0  0  0  0  0  0  0  0  0  0  0
   -6.3661  208.6760  111.4266 N   0  0  0  0  0  0  0  0  0  0  0  0
   -6.1994  207.8922  110.3412 C   0  0  0  0  0  0  0  0  0  0  0  0
   -6.8641  206.1511  108.8983 F   0  0  0  0  0  0  0  0  0  0  0  0
   -9.2127  205.7511  110.5409 C   0  0  0  0  0  0  0  0  0  0  0  0
   -9.4050  204.5240  111.1721 N   0  0  0  0  0  0  0  0  0  0  0  0
  -10.5647  203.9736  110.6459 C   0  0  0  0  0  0  0  0  0  0  0  0
  -11.0438  204.7205  109.6734 N   0  0  0  0  0  0  0  0  0  0  0  0
  -10.2233  205.8039  109.5990 C   0  0  0  0  0  0  0  0  0  0  0  0
  -11.2159  202.7173  111.0986 C   0  0  0  0  0  0  0  0  0  0  0  0
   -8.5231  203.9292  112.1802 C   0  0  0  0  0  0  0  0  0  0  0  0
   -8.6068  204.6556  113.5246 C   0  0  0  0  0  0  0  0  0  0  0  0
   -7.0792  203.7509  111.7104 C   0  0  0  0  0  0  0  0  0  0  0  0
   -7.7869  208.9589  114.6620 C   0  0  0  0  0  0  0  0  0  0  0  0
   -8.6478  209.6851  115.4896 C   0  0  0  0  0  0  0  0  0  0  0  0
   -8.8775  209.3000  116.8158 C   0  0  0  0  0  0  0  0  0  0  0  0
   -8.2634  208.1670  117.3563 C   0  0  0  0  0  0  0  0  0  0  0  0
   -7.3988  207.4394  116.5345 C   0  0  0  0  0  0  0  0  0  0  0  0
   -7.1648  207.8292  115.2091 C   0  0  0  0  0  0  0  0  0  0  0  0
   -8.5203  207.7683  118.6700 N   0  0  0  0  0  0  0  0  0  0  0  0
   -8.0428  206.6785  119.4533 C   0  0  0  0  0  0  0  0  0  0  0  0
   -9.0623  207.0647  120.5341 C   0  0  0  0  0  0  0  0  0  0  0  0
   -9.3379  208.3218  119.6970 C   0  0  0  0  0  0  0  0  0  0  0  0
  -10.1901  206.1416  120.7997 N   0  0  0  0  0  0  0  0  0  0  0  0
  -10.6792  205.5823  121.9482 C   0  0  0  0  0  0  0  0  0  0  0  0
  -10.0500  205.8870  123.2768 C   0  0  0  0  0  0  0  0  0  0  0  0
  -11.6460  204.8209  121.8710 O   0  0  0  0  0  0  0  0  0  0  0  0
  -10.7378  205.8338  120.0008 H   0  0  0  0  0  0  0  0  0  0  0  0
  1 19  1  0  0  0  0
  1  2  1  0  0  0  0
  3  4  1  0  0  0  0
  3  8  2  0  0  0  0
  3  9  1  0  0  0  0
  4  5  2  0  0  0  0
  4 10  1  0  0  0  0
  5  6  1  0  0  0  0
  6  7  2  0  0  0  0
  6  1  1  0  0  0  0
  7  8  1  0  0  0  0
 10 11  1  0  0  0  0
 10 14  2  0  0  0  0
 11 12  1  0  0  0  0
 11 16  1  0  0  0  0
 12 13  2  0  0  0  0
 12 15  1  0  0  0  0
 13 14  1  0  0  0  0
 16 17  1  0  0  0  0
 16 18  1  0  0  0  0
 19 20  1  0  0  0  0
 19 24  2  0  0  0  0
 20 21  2  0  0  0  0
 21 22  1  0  0  0  0
 22 23  2  0  0  0  0
 22 25  1  0  0  0  0
 23 24  1  0  0  0  0
 25 26  1  0  0  0  0
 25 28  1  0  0  0  0
 26 27  1  0  0  0  0
 27 28  1  0  0  0  0
 27 29  1  0  0  0  0
 29 30  1  0  0  0  0
 29 33  1  0  0  0  0
 30 31  1  0  0  0  0
 30 32  2  0  0  0  0
M  END
>  <minimizedAffinity>
0.00000

$$$$
