ZINC16052720


 38 45  0  0  0  0  0  0  0  0999 V2000
  -12.3167  202.8478  113.5926 C   0  0  0  0  0  0  0  0  0  0  0  0
  -12.3917  204.0730  114.5059 C   0  0  0  0  0  0  0  0  0  0  0  0
  -11.9162  203.6349  115.8863 C   0  0  0  0  0  0  0  0  0  0  0  0
  -11.6904  204.8722  116.7623 C   0  0  0  0  0  0  0  0  0  0  0  0
  -10.6269  205.7475  116.0899 C   0  0  0  0  0  0  0  0  0  0  0  0
  -11.1147  206.1646  114.7073 C   0  0  0  0  0  0  0  0  0  0  0  0
  -11.5618  205.0649  113.9431 O   0  0  0  0  0  0  0  0  0  0  0  0
  -12.1315  207.2090  114.8151 N   0  0  0  0  0  0  0  0  0  0  0  0
  -11.9413  208.5541  114.9363 C   0  0  0  0  0  0  0  0  0  0  0  0
  -13.1400  209.1761  115.0111 C   0  0  0  0  0  0  0  0  0  0  0  0
  -14.1512  208.1954  114.9327 C   0  0  0  0  0  0  0  0  0  0  0  0
  -13.4921  206.9704  114.8034 C   0  0  0  0  0  0  0  0  0  0  0  0
  -14.2188  205.7837  114.6878 C   0  0  0  0  0  0  0  0  0  0  0  0
  -13.7967  204.4785  114.5520 N   0  0  0  0  0  0  0  0  0  0  0  0
  -14.8930  203.6649  114.4660 C   0  0  0  0  0  0  0  0  0  0  0  0
  -16.0190  204.4018  114.5484 C   0  0  0  0  0  0  0  0  0  0  0  0
  -15.6213  205.7995  114.7008 C   0  0  0  0  0  0  0  0  0  0  0  0
  -16.3051  207.0076  114.8419 C   0  0  0  0  0  0  0  0  0  0  0  0
  -15.6129  208.2081  114.9601 C   0  0  0  0  0  0  0  0  0  0  0  0
  -16.5891  209.2972  115.0963 C   0  0  0  0  0  0  0  0  0  0  0  0
  -16.3039  210.4733  115.2187 O   0  0  0  0  0  0  0  0  0  0  0  0
  -17.8417  208.8114  115.0663 N   0  0  0  0  0  0  0  0  0  0  0  0
  -17.7726  207.3547  114.9052 C   0  0  0  0  0  0  0  0  0  0  0  0
  -17.4165  203.8417  114.4858 C   0  0  0  0  0  0  0  0  0  0  0  0
  -17.3452  202.4210  113.9124 C   0  0  0  0  0  0  0  0  0  0  0  0
  -16.2754  201.6252  114.6654 C   0  0  0  0  0  0  0  0  0  0  0  0
  -14.8871  202.1622  114.3014 C   0  0  0  0  0  0  0  0  0  0  0  0
  -13.3168  210.6676  115.1515 C   0  0  0  0  0  0  0  0  0  0  0  0
  -11.9833  211.2783  115.5972 C   0  0  0  0  0  0  0  0  0  0  0  0
  -10.8612  210.7630  114.6915 C   0  0  0  0  0  0  0  0  0  0  0  0
  -10.6156  209.2780  114.9801 C   0  0  0  0  0  0  0  0  0  0  0  0
  -18.7049  209.3680  115.1434 H   0  0  0  0  0  0  0  0  0  0  0  0
   -9.7463  204.3707  118.1155 C   0  0  0  0  0  0  0  0  0  0  0  0
  -11.2190  204.4502  118.0948 N   0  0  0  0  0  0  0  0  0  0  0  0
  -11.6132  203.5257  118.3204 H   0  0  0  0  0  0  0  0  0  0  0  0
  -11.5335  205.1319  118.7999 H   0  0  0  0  0  0  0  0  0  0  0  0
  -12.9063  202.7987  116.4883 O   0  0  0  0  0  0  0  0  0  0  0  0
  -12.3846  201.5940  117.0528 C   0  0  0  0  0  0  0  0  0  0  0  0
  2  1  1  0  0  0
  2  7  1  0  0  0
  2 14  1  0  0  0
  2  3  1  0  0  0
  3  4  1  0  0  0
  3 37  1  0  0  0
  4  5  1  0  0  0
  4 34  1  0  0  0
  5  6  1  0  0  0
  6  7  1  0  0  0
  6  8  1  0  0  0
  8 12  1  0  0  0
  8  9  1  0  0  0
  9 31  1  0  0  0
  9 10  2  0  0  0
 10 11  1  0  0  0
 10 28  1  0  0  0
 11 19  1  0  0  0
 11 12  2  0  0  0
 12 13  1  0  0  0
 13 17  2  0  0  0
 13 14  1  0  0  0
 14 15  1  0  0  0
 15 27  1  0  0  0
 15 16  2  0  0  0
 16 17  1  0  0  0
 16 24  1  0  0  0
 17 18  1  0  0  0
 18 23  1  0  0  0
 18 19  2  0  0  0
 19 20  1  0  0  0
 20 21  2  0  0  0
 20 22  1  0  0  0
 22 23  1  0  0  0
 22 32  1  0  0  0
 24 25  1  0  0  0
 25 26  1  0  0  0
 26 27  1  0  0  0
 28 29  1  0  0  0
 29 30  1  0  0  0
 30 31  1  0  0  0
 33 34  1  0  0  0
 37 38  1  0  0  0
 34 35  1  0  0  0
 34 36  1  0  0  0
M  CHG 1  34   1
M  END
> <minimizedAffinity>
0.00000

$$$$
ZINC16052720


 38 45  0  0  0  0  0  0  0  0999 V2000
  -12.0809  207.2317  113.9602 C   0  0  0  0  0  0  0  0  0  0  0  0
  -12.4116  207.3475  112.4709 C   0  0  0  0  0  0  0  0  0  0  0  0
  -11.2103  207.9953  111.7923 C   0  0  0  0  0  0  0  0  0  0  0  0
  -11.3577  207.8714  110.2717 C   0  0  0  0  0  0  0  0  0  0  0  0
  -11.4256  206.3820  109.9169 C   0  0  0  0  0  0  0  0  0  0  0  0
  -12.6246  205.7496  110.6141 C   0  0  0  0  0  0  0  0  0  0  0  0
  -12.6568  206.0426  111.9949 O   0  0  0  0  0  0  0  0  0  0  0  0
  -13.8668  206.1272  109.9429 N   0  0  0  0  0  0  0  0  0  0  0  0
  -14.4421  205.5414  108.8538 C   0  0  0  0  0  0  0  0  0  0  0  0
  -15.5855  206.1923  108.5404 C   0  0  0  0  0  0  0  0  0  0  0  0
  -15.7623  207.2430  109.4652 C   0  0  0  0  0  0  0  0  0  0  0  0
  -14.6739  207.1761  110.3386 C   0  0  0  0  0  0  0  0  0  0  0  0
  -14.5552  208.0834  111.3933 C   0  0  0  0  0  0  0  0  0  0  0  0
  -13.5875  208.2117  112.3666 N   0  0  0  0  0  0  0  0  0  0  0  0
  -13.9210  209.2531  113.1885 C   0  0  0  0  0  0  0  0  0  0  0  0
  -15.0759  209.8125  112.7750 C   0  0  0  0  0  0  0  0  0  0  0  0
  -15.5239  209.0778  111.5941 C   0  0  0  0  0  0  0  0  0  0  0  0
  -16.6144  209.1756  110.7291 C   0  0  0  0  0  0  0  0  0  0  0  0
  -16.7635  208.2889  109.6681 C   0  0  0  0  0  0  0  0  0  0  0  0
  -17.9902  208.6371  108.9389 C   0  0  0  0  0  0  0  0  0  0  0  0
  -18.4038  208.0505  107.9569 O   0  0  0  0  0  0  0  0  0  0  0  0
  -18.5913  209.6949  109.5097 N   0  0  0  0  0  0  0  0  0  0  0  0
  -17.7925  210.1169  110.6657 C   0  0  0  0  0  0  0  0  0  0  0  0
  -15.7495  210.9824  113.4443 C   0  0  0  0  0  0  0  0  0  0  0  0
  -15.1566  211.1457  114.8493 C   0  0  0  0  0  0  0  0  0  0  0  0
  -13.6281  211.1418  114.7563 C   0  0  0  0  0  0  0  0  0  0  0  0
  -13.1412  209.7357  114.3902 C   0  0  0  0  0  0  0  0  0  0  0  0
  -16.4876  205.8208  107.3898 C   0  0  0  0  0  0  0  0  0  0  0  0
  -15.7128  204.9025  106.4378 C   0  0  0  0  0  0  0  0  0  0  0  0
  -15.0594  203.7741  107.2409 C   0  0  0  0  0  0  0  0  0  0  0  0
  -13.9191  204.3475  108.0892 C   0  0  0  0  0  0  0  0  0  0  0  0
  -19.4657  210.1351  109.1894 H   0  0  0  0  0  0  0  0  0  0  0  0
   -9.1215  207.4883  109.4259 C   0  0  0  0  0  0  0  0  0  0  0  0
  -10.1899  208.4877  109.6141 N   0  0  0  0  0  0  0  0  0  0  0  0
   -9.8359  209.2590  110.1977 H   0  0  0  0  0  0  0  0  0  0  0  0
  -10.4724  208.8614  108.6968 H   0  0  0  0  0  0  0  0  0  0  0  0
  -11.1457  209.3762  112.1542 O   0  0  0  0  0  0  0  0  0  0  0  0
   -9.8488  209.8079  112.5708 C   0  0  0  0  0  0  0  0  0  0  0  0
  2  1  1  0  0  0
  2  7  1  0  0  0
  2 14  1  0  0  0
  2  3  1  0  0  0
  3  4  1  0  0  0
  3 37  1  0  0  0
  4  5  1  0  0  0
  4 34  1  0  0  0
  5  6  1  0  0  0
  6  7  1  0  0  0
  6  8  1  0  0  0
  8 12  1  0  0  0
  8  9  1  0  0  0
  9 31  1  0  0  0
  9 10  2  0  0  0
 10 11  1  0  0  0
 10 28  1  0  0  0
 11 19  1  0  0  0
 11 12  2  0  0  0
 12 13  1  0  0  0
 13 17  2  0  0  0
 13 14  1  0  0  0
 14 15  1  0  0  0
 15 27  1  0  0  0
 15 16  2  0  0  0
 16 17  1  0  0  0
 16 24  1  0  0  0
 17 18  1  0  0  0
 18 23  1  0  0  0
 18 19  2  0  0  0
 19 20  1  0  0  0
 20 21  2  0  0  0
 20 22  1  0  0  0
 22 23  1  0  0  0
 22 32  1  0  0  0
 24 25  1  0  0  0
 25 26  1  0  0  0
 26 27  1  0  0  0
 28 29  1  0  0  0
 29 30  1  0  0  0
 30 31  1  0  0  0
 33 34  1  0  0  0
 37 38  1  0  0  0
 34 35  1  0  0  0
 34 36  1  0  0  0
M  CHG 1  34   1
M  END
> <minimizedAffinity>
0.00000

$$$$
ZINC16052720


 38 45  0  0  0  0  0  0  0  0999 V2000
  -16.0442  202.8416  124.4841 C   0  0  0  0  0  0  0  0  0  0  0  0
  -14.7600  202.8245  123.6527 C   0  0  0  0  0  0  0  0  0  0  0  0
  -13.5983  203.0459  124.6145 C   0  0  0  0  0  0  0  0  0  0  0  0
  -12.2785  202.7488  123.8942 C   0  0  0  0  0  0  0  0  0  0  0  0
  -12.3063  201.2897  123.4259 C   0  0  0  0  0  0  0  0  0  0  0  0
  -13.4808  201.0852  122.4760 C   0  0  0  0  0  0  0  0  0  0  0  0
  -14.6937  201.5696  123.0123 O   0  0  0  0  0  0  0  0  0  0  0  0
  -13.1887  201.6643  121.1662 N   0  0  0  0  0  0  0  0  0  0  0  0
  -12.5082  201.0939  120.1310 C   0  0  0  0  0  0  0  0  0  0  0  0
  -12.4513  201.9607  119.0942 C   0  0  0  0  0  0  0  0  0  0  0  0
  -13.1246  203.1421  119.4698 C   0  0  0  0  0  0  0  0  0  0  0  0
  -13.5838  202.9279  120.7717 C   0  0  0  0  0  0  0  0  0  0  0  0
  -14.3111  203.9161  121.4381 C   0  0  0  0  0  0  0  0  0  0  0  0
  -14.8582  203.9332  122.7032 N   0  0  0  0  0  0  0  0  0  0  0  0
  -15.4906  205.1308  122.8963 C   0  0  0  0  0  0  0  0  0  0  0  0
  -15.3660  205.8985  121.7951 C   0  0  0  0  0  0  0  0  0  0  0  0
  -14.5925  205.1406  120.8142 C   0  0  0  0  0  0  0  0  0  0  0  0
  -14.1348  205.3861  119.5191 C   0  0  0  0  0  0  0  0  0  0  0  0
  -13.4071  204.4244  118.8266 C   0  0  0  0  0  0  0  0  0  0  0  0
  -13.0632  204.9633  117.5040 C   0  0  0  0  0  0  0  0  0  0  0  0
  -12.4281  204.3666  116.6555 O   0  0  0  0  0  0  0  0  0  0  0  0
  -13.5493  206.2082  117.3636 N   0  0  0  0  0  0  0  0  0  0  0  0
  -14.2542  206.5750  118.5969 C   0  0  0  0  0  0  0  0  0  0  0  0
  -15.9414  207.2831  121.6458 C   0  0  0  0  0  0  0  0  0  0  0  0
  -17.0000  207.4893  122.7362 C   0  0  0  0  0  0  0  0  0  0  0  0
  -16.4135  207.0875  124.0924 C   0  0  0  0  0  0  0  0  0  0  0  0
  -16.2303  205.5668  124.1405 C   0  0  0  0  0  0  0  0  0  0  0  0
  -11.7740  201.6690  117.7782 C   0  0  0  0  0  0  0  0  0  0  0  0
  -10.8499  200.4597  117.9612 C   0  0  0  0  0  0  0  0  0  0  0  0
  -11.6234  199.3288  118.6452 C   0  0  0  0  0  0  0  0  0  0  0  0
  -11.9001  199.7109  120.1033 C   0  0  0  0  0  0  0  0  0  0  0  0
  -13.4445  206.8045  116.5303 H   0  0  0  0  0  0  0  0  0  0  0  0
  -10.8528  201.6988  125.5458 C   0  0  0  0  0  0  0  0  0  0  0  0
  -11.1542  202.9514  124.8274 N   0  0  0  0  0  0  0  0  0  0  0  0
  -11.4021  203.6834  125.5083 H   0  0  0  0  0  0  0  0  0  0  0  0
  -10.3218  203.2501  124.2994 H   0  0  0  0  0  0  0  0  0  0  0  0
  -13.6022  204.4029  125.0623 O   0  0  0  0  0  0  0  0  0  0  0  0
  -13.4627  204.5486  126.4770 C   0  0  0  0  0  0  0  0  0  0  0  0
  2  1  1  0  0  0
  2  7  1  0  0  0
  2 14  1  0  0  0
  2  3  1  0  0  0
  3  4  1  0  0  0
  3 37  1  0  0  0
  4  5  1  0  0  0
  4 34  1  0  0  0
  5  6  1  0  0  0
  6  7  1  0  0  0
  6  8  1  0  0  0
  8 12  1  0  0  0
  8  9  1  0  0  0
  9 31  1  0  0  0
  9 10  2  0  0  0
 10 11  1  0  0  0
 10 28  1  0  0  0
 11 19  1  0  0  0
 11 12  2  0  0  0
 12 13  1  0  0  0
 13 17  2  0  0  0
 13 14  1  0  0  0
 14 15  1  0  0  0
 15 27  1  0  0  0
 15 16  2  0  0  0
 16 17  1  0  0  0
 16 24  1  0  0  0
 17 18  1  0  0  0
 18 23  1  0  0  0
 18 19  2  0  0  0
 19 20  1  0  0  0
 20 21  2  0  0  0
 20 22  1  0  0  0
 22 23  1  0  0  0
 22 32  1  0  0  0
 24 25  1  0  0  0
 25 26  1  0  0  0
 26 27  1  0  0  0
 28 29  1  0  0  0
 29 30  1  0  0  0
 30 31  1  0  0  0
 33 34  1  0  0  0
 37 38  1  0  0  0
 34 35  1  0  0  0
 34 36  1  0  0  0
M  CHG 1  34   1
M  END
> <minimizedAffinity>
0.00066

$$$$
