ZINC14690834


 37 41  0  0  0  0  0  0  0  0999 V2000
  -15.3325  208.2348  114.7353 C   0  0  0  0  0  0  0  0  0  0  0  0
  -16.0831  207.2690  115.6510 C   0  0  0  0  0  0  0  0  0  0  0  0
  -17.3619  207.9313  116.1647 C   0  0  0  0  0  0  0  0  0  0  0  0
  -17.0653  208.9426  117.2659 C   0  0  0  0  0  0  0  0  0  0  0  0
  -16.3428  208.2569  118.4212 C   0  0  0  0  0  0  0  0  0  0  0  0
  -15.0019  207.6877  117.9438 C   0  0  0  0  0  0  0  0  0  0  0  0
  -15.2258  206.7344  116.7775 C   0  0  0  0  0  0  0  0  0  0  0  0
  -13.8657  206.2399  116.2859 C   0  0  0  0  0  0  0  0  0  0  0  0
  -13.1577  205.5711  117.4396 C   0  0  0  0  0  0  0  0  0  0  0  0
  -13.3610  205.8831  118.6903 C   0  0  0  0  0  0  0  0  0  0  0  0
  -14.3739  206.9164  119.0987 C   0  0  0  0  0  0  0  0  0  0  0  0
  -13.7371  207.8594  120.1188 C   0  0  0  0  0  0  0  0  0  0  0  0
  -13.3674  207.0162  121.3411 C   0  0  0  0  0  0  0  0  0  0  0  0
  -12.2678  206.0143  120.9985 C   0  0  0  0  0  0  0  0  0  0  0  0
  -12.6073  205.1533  119.7725 C   0  0  0  0  0  0  0  0  0  0  0  0
  -13.4833  204.0137  120.3389 C   0  0  0  0  0  0  0  0  0  0  0  0
  -12.8248  203.6971  121.6991 C   0  0  0  0  0  0  0  0  0  0  0  0
  -12.2094  205.0182  122.1865 C   0  0  0  0  0  0  0  0  0  0  0  0
  -11.3026  204.5594  119.2226 C   0  0  0  0  0  0  0  0  0  0  0  0
  -10.9140  206.7181  120.8207 C   0  0  0  0  0  0  0  0  0  0  0  0
  -14.0756  208.8419  117.5657 C   0  0  0  0  0  0  0  0  0  0  0  0
  -18.2463  206.9220  116.6641 O   0  0  0  0  0  0  0  0  0  0  0  0
  -16.5292  206.0697  114.7789 C   0  0  0  0  0  0  0  0  0  0  0  0
  -17.8087  206.4326  117.4052 H   0  0  0  0  0  0  0  0  0  0  0  0
  -10.7650  204.8048  122.6393 C   0  0  0  0  0  0  0  0  0  0  0  0
  -10.5828  205.3689  124.0518 C   0  0  0  0  0  0  0  0  0  0  0  0
   -9.1548  205.0801  124.5249 C   0  0  0  0  0  0  0  0  0  0  0  0
   -8.9007  203.5717  124.4642 C   0  0  0  0  0  0  0  0  0  0  0  0
   -9.1174  203.1066  123.1304 O   0  0  0  0  0  0  0  0  0  0  0  0
  -10.4489  203.3070  122.6517 C   0  0  0  0  0  0  0  0  0  0  0  0
   -8.2248  205.7557  123.6759 O   0  0  0  0  0  0  0  0  0  0  0  0
   -8.3927  206.7307  123.7113 H   0  0  0  0  0  0  0  0  0  0  0  0
   -7.4567  203.2804  124.8779 C   0  0  0  0  0  0  0  0  0  0  0  0
   -6.6396  202.8976  123.6423 C   0  0  0  0  0  0  0  0  0  0  0  0
   -7.4367  202.1250  125.8807 C   0  0  0  0  0  0  0  0  0  0  0  0
   -6.8901  204.4451  125.4816 O   0  0  0  0  0  0  0  0  0  0  0  0
   -7.4181  204.6934  126.2815 H   0  0  0  0  0  0  0  0  0  0  0  0
  1  2  1  0  0  0
  2  7  1  0  0  0
  2  3  1  0  0  0
  2 23  1  0  0  0
  3  4  1  0  0  0
  3 22  1  0  0  0
  4  5  1  0  0  0
  5  6  1  0  0  0
  6 11  1  0  0  0
  6  7  1  0  0  0
  6 21  1  0  0  0
  7  8  1  0  0  0
  8  9  1  0  0  0
  9 10  2  0  0  0
 10 15  1  0  0  0
 10 11  1  0  0  0
 11 12  1  0  0  0
 12 13  1  0  0  0
 13 14  1  0  0  0
 14 18  1  0  0  0
 14 15  1  0  0  0
 14 20  1  0  0  0
 15 16  1  0  0  0
 15 19  1  0  0  0
 16 17  1  0  0  0
 17 18  1  0  0  0
 18 25  1  0  0  0
 25 30  1  0  0  0
 25 26  1  0  0  0
 26 27  1  0  0  0
 27 28  1  0  0  0
 27 31  1  0  0  0
 28 29  1  0  0  0
 28 33  1  0  0  0
 29 30  1  0  0  0
 33 34  1  0  0  0
 33 35  1  0  0  0
 33 36  1  0  0  0
 36 37  1  0  0  0
 31 32  1  0  0  0
 22 24  1  0  0  0
M  END
> <minimizedAffinity>
-0.00114

$$$$
ZINC14690834


 37 41  0  0  0  0  0  0  0  0999 V2000
  -18.4193  211.2741  116.2854 C   0  0  0  0  0  0  0  0  0  0  0  0
  -18.0783  210.5375  117.5799 C   0  0  0  0  0  0  0  0  0  0  0  0
  -17.4125  211.5007  118.5632 C   0  0  0  0  0  0  0  0  0  0  0  0
  -15.9603  211.7703  118.1866 C   0  0  0  0  0  0  0  0  0  0  0  0
  -15.1815  210.4594  118.1454 C   0  0  0  0  0  0  0  0  0  0  0  0
  -15.7694  209.5276  117.0796 C   0  0  0  0  0  0  0  0  0  0  0  0
  -17.2492  209.2924  117.3516 C   0  0  0  0  0  0  0  0  0  0  0  0
  -17.8155  208.4160  116.2348 C   0  0  0  0  0  0  0  0  0  0  0  0
  -17.0316  207.1262  116.1989 C   0  0  0  0  0  0  0  0  0  0  0  0
  -15.7888  207.0255  116.5840 C   0  0  0  0  0  0  0  0  0  0  0  0
  -15.0351  208.1941  117.1556 C   0  0  0  0  0  0  0  0  0  0  0  0
  -13.6627  208.2737  116.4883 C   0  0  0  0  0  0  0  0  0  0  0  0
  -12.9174  206.9836  116.8372 C   0  0  0  0  0  0  0  0  0  0  0  0
  -13.5925  205.7746  116.1946 C   0  0  0  0  0  0  0  0  0  0  0  0
  -15.0927  205.6904  116.5140 C   0  0  0  0  0  0  0  0  0  0  0  0
  -15.1494  205.0009  117.8953 C   0  0  0  0  0  0  0  0  0  0  0  0
  -14.0284  203.9421  117.8142 C   0  0  0  0  0  0  0  0  0  0  0  0
  -12.9666  204.5251  116.8684 C   0  0  0  0  0  0  0  0  0  0  0  0
  -15.7589  204.7824  115.4704 C   0  0  0  0  0  0  0  0  0  0  0  0
  -13.3487  205.7458  114.6782 C   0  0  0  0  0  0  0  0  0  0  0  0
  -15.5344  210.1371  115.6988 C   0  0  0  0  0  0  0  0  0  0  0  0
  -17.4720  210.9432  119.8808 O   0  0  0  0  0  0  0  0  0  0  0  0
  -19.4187  210.1079  118.2251 C   0  0  0  0  0  0  0  0  0  0  0  0
  -16.9961  210.0752  119.8971 H   0  0  0  0  0  0  0  0  0  0  0  0
  -12.5583  203.4941  115.8163 C   0  0  0  0  0  0  0  0  0  0  0  0
  -11.0333  203.3503  115.8054 C   0  0  0  0  0  0  0  0  0  0  0  0
  -10.6412  202.2597  114.8037 C   0  0  0  0  0  0  0  0  0  0  0  0
  -11.3454  200.9539  115.1814 C   0  0  0  0  0  0  0  0  0  0  0  0
  -12.7586  201.1652  115.2030 O   0  0  0  0  0  0  0  0  0  0  0  0
  -13.1882  202.1406  116.1550 C   0  0  0  0  0  0  0  0  0  0  0  0
  -11.0388  202.6539  113.4889 O   0  0  0  0  0  0  0  0  0  0  0  0
  -10.5873  203.5010  113.2470 H   0  0  0  0  0  0  0  0  0  0  0  0
  -11.0066  199.8749  114.1508 C   0  0  0  0  0  0  0  0  0  0  0  0
  -12.2256  199.6169  113.2630 C   0  0  0  0  0  0  0  0  0  0  0  0
  -10.6193  198.5831  114.8736 C   0  0  0  0  0  0  0  0  0  0  0  0
   -9.9132  200.3148  113.3427 O   0  0  0  0  0  0  0  0  0  0  0  0
   -9.1238  200.4817  113.9164 H   0  0  0  0  0  0  0  0  0  0  0  0
  1  2  1  0  0  0
  2  7  1  0  0  0
  2  3  1  0  0  0
  2 23  1  0  0  0
  3  4  1  0  0  0
  3 22  1  0  0  0
  4  5  1  0  0  0
  5  6  1  0  0  0
  6 11  1  0  0  0
  6  7  1  0  0  0
  6 21  1  0  0  0
  7  8  1  0  0  0
  8  9  1  0  0  0
  9 10  2  0  0  0
 10 15  1  0  0  0
 10 11  1  0  0  0
 11 12  1  0  0  0
 12 13  1  0  0  0
 13 14  1  0  0  0
 14 18  1  0  0  0
 14 15  1  0  0  0
 14 20  1  0  0  0
 15 16  1  0  0  0
 15 19  1  0  0  0
 16 17  1  0  0  0
 17 18  1  0  0  0
 18 25  1  0  0  0
 25 30  1  0  0  0
 25 26  1  0  0  0
 26 27  1  0  0  0
 27 28  1  0  0  0
 27 31  1  0  0  0
 28 29  1  0  0  0
 28 33  1  0  0  0
 29 30  1  0  0  0
 33 34  1  0  0  0
 33 35  1  0  0  0
 33 36  1  0  0  0
 36 37  1  0  0  0
 31 32  1  0  0  0
 22 24  1  0  0  0
M  END
> <minimizedAffinity>
-0.00109

$$$$
ZINC14690834


 37 41  0  0  0  0  0  0  0  0999 V2000
  -16.0973  202.6412  110.5943 C   0  0  0  0  0  0  0  0  0  0  0  0
  -15.8843  204.0745  111.0786 C   0  0  0  0  0  0  0  0  0  0  0  0
  -14.6639  204.6795  110.3839 C   0  0  0  0  0  0  0  0  0  0  0  0
  -13.3629  204.1522  110.9779 C   0  0  0  0  0  0  0  0  0  0  0  0
  -13.3093  204.4615  112.4706 C   0  0  0  0  0  0  0  0  0  0  0  0
  -14.4647  203.7640  113.1976 C   0  0  0  0  0  0  0  0  0  0  0  0
  -15.7947  204.1830  112.5853 C   0  0  0  0  0  0  0  0  0  0  0  0
  -16.9159  203.4189  113.2888 C   0  0  0  0  0  0  0  0  0  0  0  0
  -16.8473  203.7267  114.7653 C   0  0  0  0  0  0  0  0  0  0  0  0
  -15.7450  204.0485  115.3854 C   0  0  0  0  0  0  0  0  0  0  0  0
  -14.4365  204.1944  114.6594 C   0  0  0  0  0  0  0  0  0  0  0  0
  -13.3513  203.4525  115.4388 C   0  0  0  0  0  0  0  0  0  0  0  0
  -13.2382  204.1288  116.8068 C   0  0  0  0  0  0  0  0  0  0  0  0
  -14.5121  203.9230  117.6224 C   0  0  0  0  0  0  0  0  0  0  0  0
  -15.7798  204.3427  116.8633 C   0  0  0  0  0  0  0  0  0  0  0  0
  -15.8702  205.8685  117.0881 C   0  0  0  0  0  0  0  0  0  0  0  0
  -15.4126  206.0431  118.5524 C   0  0  0  0  0  0  0  0  0  0  0  0
  -14.4174  204.9033  118.8211 C   0  0  0  0  0  0  0  0  0  0  0  0
  -16.9871  203.6639  117.5258 C   0  0  0  0  0  0  0  0  0  0  0  0
  -14.6217  202.4741  118.1209 C   0  0  0  0  0  0  0  0  0  0  0  0
  -14.2579  202.2521  113.1289 C   0  0  0  0  0  0  0  0  0  0  0  0
  -14.7081  206.1049  110.5123 O   0  0  0  0  0  0  0  0  0  0  0  0
  -17.1091  204.8989  110.6118 C   0  0  0  0  0  0  0  0  0  0  0  0
  -14.6981  206.3536  111.4705 H   0  0  0  0  0  0  0  0  0  0  0  0
  -14.7574  204.1886  120.1289 C   0  0  0  0  0  0  0  0  0  0  0  0
  -13.5122  204.1305  121.0192 C   0  0  0  0  0  0  0  0  0  0  0  0
  -13.8838  203.4828  122.3567 C   0  0  0  0  0  0  0  0  0  0  0  0
  -15.0223  204.2780  123.0009 C   0  0  0  0  0  0  0  0  0  0  0  0
  -16.1376  204.3193  122.1084 O   0  0  0  0  0  0  0  0  0  0  0  0
  -15.8619  204.9567  120.8594 C   0  0  0  0  0  0  0  0  0  0  0  0
  -14.3081  202.1366  122.1335 O   0  0  0  0  0  0  0  0  0  0  0  0
  -13.5734  201.6239  121.7122 H   0  0  0  0  0  0  0  0  0  0  0  0
  -15.4402  203.6025  124.3087 C   0  0  0  0  0  0  0  0  0  0  0  0
  -16.7898  202.9083  124.1155 C   0  0  0  0  0  0  0  0  0  0  0  0
  -15.5619  204.6567  125.4109 C   0  0  0  0  0  0  0  0  0  0  0  0
  -14.4560  202.6356  124.6809 O   0  0  0  0  0  0  0  0  0  0  0  0
  -13.5823  203.0840  124.8064 H   0  0  0  0  0  0  0  0  0  0  0  0
  1  2  1  0  0  0
  2  7  1  0  0  0
  2  3  1  0  0  0
  2 23  1  0  0  0
  3  4  1  0  0  0
  3 22  1  0  0  0
  4  5  1  0  0  0
  5  6  1  0  0  0
  6 11  1  0  0  0
  6  7  1  0  0  0
  6 21  1  0  0  0
  7  8  1  0  0  0
  8  9  1  0  0  0
  9 10  2  0  0  0
 10 15  1  0  0  0
 10 11  1  0  0  0
 11 12  1  0  0  0
 12 13  1  0  0  0
 13 14  1  0  0  0
 14 18  1  0  0  0
 14 15  1  0  0  0
 14 20  1  0  0  0
 15 16  1  0  0  0
 15 19  1  0  0  0
 16 17  1  0  0  0
 17 18  1  0  0  0
 18 25  1  0  0  0
 25 30  1  0  0  0
 25 26  1  0  0  0
 26 27  1  0  0  0
 27 28  1  0  0  0
 27 31  1  0  0  0
 28 29  1  0  0  0
 28 33  1  0  0  0
 29 30  1  0  0  0
 33 34  1  0  0  0
 33 35  1  0  0  0
 33 36  1  0  0  0
 36 37  1  0  0  0
 31 32  1  0  0  0
 22 24  1  0  0  0
M  END
> <minimizedAffinity>
-0.00099

$$$$
