ZINC00011880


 26 28  0  0  0  0  0  0  0  0999 V2000
   -8.0626  207.9124  112.3274 C   0  0  0  0  0  0  0  0  0  0  0  0
   -8.6418  206.8070  113.2132 C   0  0  0  0  0  0  0  0  0  0  0  0
  -10.0836  206.5161  112.7836 C   0  0  0  0  0  0  0  0  0  0  0  0
  -10.5996  205.3117  113.5913 C   0  0  0  0  0  0  0  0  0  0  0  0
  -10.1885  205.5151  115.0131 C   0  0  0  0  0  0  0  0  0  0  0  0
   -9.2648  206.4056  115.4763 C   0  0  0  0  0  0  0  0  0  0  0  0
   -9.0455  206.4202  116.8517 C   0  0  0  0  0  0  0  0  0  0  0  0
   -9.7356  205.5735  117.6541 C   0  0  0  0  0  0  0  0  0  0  0  0
  -10.7539  204.6952  116.4765 S   0  0  0  0  0  0  0  0  0  0  0  0
   -8.6092  207.2285  114.5788 O   0  0  0  0  0  0  0  0  0  0  0  0
  -10.9027  207.6574  113.0482 O   0  0  0  0  0  0  0  0  0  0  0  0
   -7.8030  205.5379  113.0528 C   0  0  0  0  0  0  0  0  0  0  0  0
  -11.8328  207.5372  112.8148 H   0  0  0  0  0  0  0  0  0  0  0  0
  -12.0595  205.2401  113.5007 N   0  0  0  0  0  0  0  0  0  0  0  0
  -12.6543  204.1090  113.0714 C   0  0  0  0  0  0  0  0  0  0  0  0
  -11.9777  203.1477  112.7601 O   0  0  0  0  0  0  0  0  0  0  0  0
  -12.5996  206.0072  113.7485 H   0  0  0  0  0  0  0  0  0  0  0  0
  -14.1280  204.0366  112.9797 C   0  0  0  0  0  0  0  0  0  0  0  0
  -14.7381  202.9704  112.3183 C   0  0  0  0  0  0  0  0  0  0  0  0
  -16.1138  202.9085  112.2360 C   0  0  0  0  0  0  0  0  0  0  0  0
  -16.8889  203.9024  112.8070 C   0  0  0  0  0  0  0  0  0  0  0  0
  -16.2905  204.9658  113.4604 C   0  0  0  0  0  0  0  0  0  0  0  0
  -14.9154  205.0360  113.5549 C   0  0  0  0  0  0  0  0  0  0  0  0
  -18.3644  203.8312  112.7149 N   0  0  0  0  0  0  0  0  0  0  0  0
  -19.0479  204.7063  113.2158 O   0  0  0  0  0  0  0  0  0  0  0  0
  -18.8944  202.9017  112.1341 O   0  0  0  0  0  0  0  0  0  0  0  0
  1  2  1  0  0  0
  2  3  1  0  0  0
  2 10  1  0  0  0
  2 12  1  0  0  0
  3  4  1  0  0  0
  3 11  1  0  0  0
  4  5  1  0  0  0
  4 14  1  0  0  0
  5  6  2  0  0  0
  5  9  1  0  0  0
  6  7  1  0  0  0
  6 10  1  0  0  0
  7  8  2  0  0  0
  8  9  1  0  0  0
 14 15  1  0  0  0
 14 17  1  0  0  0
 15 16  2  0  0  0
 15 18  1  0  0  0
 18 19  2  0  0  0
 18 23  1  0  0  0
 19 20  1  0  0  0
 20 21  2  0  0  0
 21 22  1  0  0  0
 21 24  1  0  0  0
 22 23  2  0  0  0
 24 25  2  0  0  0
 24 26  2  0  0  0
 11 13  1  0  0  0
M  END
> <minimizedAffinity>
-0.00005

$$$$
ZINC00011880


 26 28  0  0  0  0  0  0  0  0999 V2000
  -18.9414  200.1665  116.2603 C   0  0  0  0  0  0  0  0  0  0  0  0
  -17.9995  200.6739  115.1661 C   0  0  0  0  0  0  0  0  0  0  0  0
  -16.5491  200.4037  115.5801 C   0  0  0  0  0  0  0  0  0  0  0  0
  -15.6274  200.7935  114.4105 C   0  0  0  0  0  0  0  0  0  0  0  0
  -16.1026  202.1080  113.8832 C   0  0  0  0  0  0  0  0  0  0  0  0
  -17.2995  202.7079  114.1446 C   0  0  0  0  0  0  0  0  0  0  0  0
  -17.5252  203.9423  113.5400 C   0  0  0  0  0  0  0  0  0  0  0  0
  -16.5770  204.4840  112.7373 C   0  0  0  0  0  0  0  0  0  0  0  0
  -15.2881  203.2471  112.8002 S   0  0  0  0  0  0  0  0  0  0  0  0
  -18.2056  202.0757  114.9762 O   0  0  0  0  0  0  0  0  0  0  0  0
  -16.2239  201.1890  116.7294 O   0  0  0  0  0  0  0  0  0  0  0  0
  -18.2961  199.9351  113.8599 C   0  0  0  0  0  0  0  0  0  0  0  0
  -15.3142  201.0791  117.0368 H   0  0  0  0  0  0  0  0  0  0  0  0
  -14.2472  200.9168  114.8842 N   0  0  0  0  0  0  0  0  0  0  0  0
  -13.2647  200.2088  114.2918 C   0  0  0  0  0  0  0  0  0  0  0  0
  -13.5252  199.4682  113.3631 O   0  0  0  0  0  0  0  0  0  0  0  0
  -14.0391  201.5072  115.6256 H   0  0  0  0  0  0  0  0  0  0  0  0
  -11.8713  200.3331  114.7699 C   0  0  0  0  0  0  0  0  0  0  0  0
  -10.8963  199.4372  114.3300 C   0  0  0  0  0  0  0  0  0  0  0  0
   -9.5978  199.5582  114.7800 C   0  0  0  0  0  0  0  0  0  0  0  0
   -9.2615  200.5654  115.6671 C   0  0  0  0  0  0  0  0  0  0  0  0
  -10.2244  201.4547  116.1117 C   0  0  0  0  0  0  0  0  0  0  0  0
  -11.5257  201.3479  115.6643 C   0  0  0  0  0  0  0  0  0  0  0  0
   -7.8669  200.6899  116.1470 N   0  0  0  0  0  0  0  0  0  0  0  0
   -7.5698  201.5749  116.9296 O   0  0  0  0  0  0  0  0  0  0  0  0
   -7.0185  199.9049  115.7644 O   0  0  0  0  0  0  0  0  0  0  0  0
  1  2  1  0  0  0
  2  3  1  0  0  0
  2 10  1  0  0  0
  2 12  1  0  0  0
  3  4  1  0  0  0
  3 11  1  0  0  0
  4  5  1  0  0  0
  4 14  1  0  0  0
  5  6  2  0  0  0
  5  9  1  0  0  0
  6  7  1  0  0  0
  6 10  1  0  0  0
  7  8  2  0  0  0
  8  9  1  0  0  0
 14 15  1  0  0  0
 14 17  1  0  0  0
 15 16  2  0  0  0
 15 18  1  0  0  0
 18 19  2  0  0  0
 18 23  1  0  0  0
 19 20  1  0  0  0
 20 21  2  0  0  0
 21 22  1  0  0  0
 21 24  1  0  0  0
 22 23  2  0  0  0
 24 25  2  0  0  0
 24 26  2  0  0  0
 11 13  1  0  0  0
M  END
> <minimizedAffinity>
-0.00005

$$$$
ZINC00011880


 26 28  0  0  0  0  0  0  0  0999 V2000
  -16.2254  211.7551  112.1825 C   0  0  0  0  0  0  0  0  0  0  0  0
  -16.5385  210.5120  113.0185 C   0  0  0  0  0  0  0  0  0  0  0  0
  -16.0597  209.2637  112.2698 C   0  0  0  0  0  0  0  0  0  0  0  0
  -16.2571  208.0411  113.1840 C   0  0  0  0  0  0  0  0  0  0  0  0
  -17.6096  208.1601  113.8072 C   0  0  0  0  0  0  0  0  0  0  0  0
  -18.3989  209.2723  113.8388 C   0  0  0  0  0  0  0  0  0  0  0  0
  -19.6303  209.1469  114.4775 C   0  0  0  0  0  0  0  0  0  0  0  0
  -19.9869  207.9612  115.0288 C   0  0  0  0  0  0  0  0  0  0  0  0
  -18.5665  206.9402  114.6615 S   0  0  0  0  0  0  0  0  0  0  0  0
  -17.9474  210.4390  113.2494 O   0  0  0  0  0  0  0  0  0  0  0  0
  -16.8260  209.0976  111.0746 O   0  0  0  0  0  0  0  0  0  0  0  0
  -15.8079  210.6061  114.3591 C   0  0  0  0  0  0  0  0  0  0  0  0
  -16.5863  208.3163  110.5585 H   0  0  0  0  0  0  0  0  0  0  0  0
  -16.1799  206.8108  112.3934 N   0  0  0  0  0  0  0  0  0  0  0  0
  -15.3054  205.8432  112.7347 C   0  0  0  0  0  0  0  0  0  0  0  0
  -14.5811  205.9923  113.7001 O   0  0  0  0  0  0  0  0  0  0  0  0
  -16.7573  206.6917  111.6227 H   0  0  0  0  0  0  0  0  0  0  0  0
  -15.2272  204.6012  111.9367 C   0  0  0  0  0  0  0  0  0  0  0  0
  -14.1739  203.7072  112.1319 C   0  0  0  0  0  0  0  0  0  0  0  0
  -14.1064  202.5500  111.3839 C   0  0  0  0  0  0  0  0  0  0  0  0
  -15.0805  202.2753  110.4404 C   0  0  0  0  0  0  0  0  0  0  0  0
  -16.1256  203.1599  110.2378 C   0  0  0  0  0  0  0  0  0  0  0  0
  -16.2076  204.3181  110.9838 C   0  0  0  0  0  0  0  0  0  0  0  0
  -15.0025  201.0326  109.6403 N   0  0  0  0  0  0  0  0  0  0  0  0
  -15.8581  200.7906  108.8077 O   0  0  0  0  0  0  0  0  0  0  0  0
  -14.0807  200.2555  109.8102 O   0  0  0  0  0  0  0  0  0  0  0  0
  1  2  1  0  0  0
  2  3  1  0  0  0
  2 10  1  0  0  0
  2 12  1  0  0  0
  3  4  1  0  0  0
  3 11  1  0  0  0
  4  5  1  0  0  0
  4 14  1  0  0  0
  5  6  2  0  0  0
  5  9  1  0  0  0
  6  7  1  0  0  0
  6 10  1  0  0  0
  7  8  2  0  0  0
  8  9  1  0  0  0
 14 15  1  0  0  0
 14 17  1  0  0  0
 15 16  2  0  0  0
 15 18  1  0  0  0
 18 19  2  0  0  0
 18 23  1  0  0  0
 19 20  1  0  0  0
 20 21  2  0  0  0
 21 22  1  0  0  0
 21 24  1  0  0  0
 22 23  2  0  0  0
 24 25  2  0  0  0
 24 26  2  0  0  0
 11 13  1  0  0  0
M  END
> <minimizedAffinity>
-0.00005

$$$$
