# created with PyMOL 2.5.0
@<TRIPOS>MOLECULE
MOL
59 66 1                 
SMALL
USER_CHARGES
@<TRIPOS>ATOM
1	6H80	-19.909	208.683	113.824	 H	1	UNK0	0.000	
2	8H59	-15.659	200.244	113.924	 H	1	UNK0	0.000	
3	1H81	-16.032	204.411	118.554	 H	1	UNK0	0.000	
4	9H30	-11.255	205.288	116.959	 H	1	UNK0	0.000	
5	9H31	-12.919	205.558	117.529	 H	1	UNK0	0.000	
6	9H32	-11.919	204.287	118.272	 H	1	UNK0	0.000	
7	9H02	-18.656	201.833	110.254	 H	1	UNK0	0.000	
8	6H99	-20.541	207.734	111.979	 H	1	UNK0	0.000	
9	9H28	-12.229	202.924	116.511	 H	1	UNK0	0.000	
10	9H97	-14.859	206.999	113.669	 H	1	UNK0	0.000	
11	9H96	-13.235	206.313	113.910	 H	1	UNK0	0.000	
12	 H53	-16.481	201.528	115.710	 H	1	UNK0	0.000	
13	5H48	-17.049	207.578	117.718	 H	1	UNK0	0.000	
14	1H03	-14.485	203.403	117.460	 H	1	UNK0	0.000	
15	8H88	-17.574	199.654	110.104	 H	1	UNK0	0.000	
16	 H90	-14.319	202.874	114.451	 H	1	UNK0	0.000	
17	 H91	-14.276	201.649	115.743	 H	1	UNK0	0.000	
18	1H20	-14.509	205.905	116.632	 H	1	UNK0	0.000	
19	6H32	-19.661	210.323	115.652	 H	1	UNK0	0.000	
20	1H82	-16.179	206.135	118.132	 H	1	UNK0	0.000	
21	1H80	-17.633	205.110	118.214	 H	1	UNK0	0.000	
22	8H69	-16.098	198.826	111.932	 H	1	UNK0	0.000	
23	9H98	-14.097	207.059	115.277	 H	1	UNK0	0.000	
24	5H69	-18.207	209.725	117.627	 H	1	UNK0	0.000	
25	   O	-16.804	203.429	116.390	O.3	1	UNK0	0.000	
26	   C	-16.227	202.552	115.435	C.3	1	UNK0	0.000	
27	   C	-14.678	202.618	115.448	C.3	1	UNK0	0.000	
28	   C	-14.217	203.686	116.442	C.3	1	UNK0	0.000	
29	   C	-14.915	205.038	116.112	C.3	1	UNK0	0.000	
30	   C	-16.416	204.790	116.480	C.3	1	UNK0	0.000	
31	   C	-16.576	205.136	117.948	C.3	1	UNK0	0.000	
32	   N	-17.342	205.612	115.653	N.pl3	1	UNK0	0.000	
33	   C	-17.820	205.076	114.429	C.2	1	UNK0	0.000	
34	   C	-17.612	203.914	113.803	C.2	1	UNK0	0.000	
35	   C	-18.195	203.612	112.534	C.2	1	UNK0	0.000	
36	   C	-19.058	204.675	111.994	C.2	1	UNK0	0.000	
37	   C	-19.258	205.810	112.612	C.2	1	UNK0	0.000	
38	   C	-18.655	206.111	113.856	C.2	1	UNK0	0.000	
39	   C	-18.678	207.208	114.746	C.2	1	UNK0	0.000	
40	   C	-17.848	206.902	115.869	C.2	1	UNK0	0.000	
41	   C	-17.690	207.812	116.868	C.2	1	UNK0	0.000	
42	   C	-18.329	209.014	116.810	C.2	1	UNK0	0.000	
43	   C	-19.156	209.359	115.699	C.2	1	UNK0	0.000	
44	   C	-19.295	208.435	114.690	C.2	1	UNK0	0.000	
45	   C	-20.173	206.728	111.780	C.2	1	UNK0	0.000	
46	   N	-20.396	205.846	110.653	N.2	1	UNK0	0.000	
47	   C	-19.785	204.652	110.684	C.2	1	UNK0	0.000	
48	   O	-19.826	203.767	109.852	O.2	1	UNK0	0.000	
49	   C	-17.749	202.341	112.122	C.2	1	UNK0	0.000	
50	   C	-16.888	201.863	113.152	C.2	1	UNK0	0.000	
51	   C	-16.296	200.597	113.113	C.2	1	UNK0	0.000	
52	   C	-16.551	199.814	112.010	C.2	1	UNK0	0.000	
53	   C	-17.394	200.283	110.976	C.2	1	UNK0	0.000	
54	   C	-17.987	201.509	111.051	C.2	1	UNK0	0.000	
55	   N	-16.788	202.807	114.113	N.pl3	1	UNK0	0.000	
56	   N	-12.655	203.824	116.339	N.3	1	UNK0	0.000	
57	   C	-12.154	204.805	117.342	C.3	1	UNK0	0.000	
58	   O	-14.787	205.217	114.687	O.3	1	UNK0	0.000	
59	   C	-14.212	206.469	114.368	C.3	1	UNK0	0.000	
@<TRIPOS>BOND
1 25 30 1
2 12 26 1
3 25 26 1
4 26 27 1
5 16 27 1
6 17 27 1
7 27 28 1
8 14 28 1
9 28 56 1
10 18 29 1
11 28 29 1
12 29 58 1
13 29 30 1
14 30 31 1
15 3 31 1
16 20 31 1
17 21 31 1
18 30 32 1
19 32 33 1
20 33 34 1
21 34 55 1
22 34 35 2
23 35 49 1
24 35 36 1
25 36 37 2
26 37 38 1
27 33 38 2
28 38 39 1
29 39 40 1
30 32 40 1
31 40 41 2
32 13 41 1
33 24 42 1
34 41 42 1
35 19 43 1
36 42 43 2
37 1 44 1
38 39 44 2
39 43 44 1
40 8 45 1
41 37 45 1
42 45 46 2
43 46 47 1
44 36 47 1
45 47 48 2
46 49 50 1
47 50 51 2
48 50 55 1
49 2 51 1
50 22 52 1
51 51 52 1
52 15 53 1
53 52 53 2
54 7 54 1
55 49 54 2
56 53 54 1
57 26 55 1
58 9 56 1
59 56 57 1
60 4 57 1
61 5 57 1
62 6 57 1
63 10 59 1
64 11 59 1
65 23 59 1
66 58 59 1
@<TRIPOS>SUBSTRUCTURE
1	UNK0	1	GROUP	1 ****	UNK
