ZINC00023841


 26 29  0  0  0  0  0  0  0  0999 V2000
  -13.4564  201.1650  120.7687 C   0  0  0  0  0  0  0  0  0  0  0  0
  -14.1193  200.5088  121.8209 C   0  0  0  0  0  0  0  0  0  0  0  0
  -15.4023  199.9270  121.9560 C   0  0  0  0  0  0  0  0  0  0  0  0
  -15.5109  199.4466  123.1604 N   0  0  0  0  0  0  0  0  0  0  0  0
  -14.3287  199.6811  123.8717 N   0  0  0  0  0  0  0  0  0  0  0  0
  -16.3176  198.9799  123.5233 H   0  0  0  0  0  0  0  0  0  0  0  0
  -13.4566  200.3398  123.0507 C   0  0  0  0  0  0  0  0  0  0  0  0
  -12.2165  200.7941  123.2178 N   0  0  0  0  0  0  0  0  0  0  0  0
  -11.5645  201.4061  122.2580 C   0  0  0  0  0  0  0  0  0  0  0  0
  -12.1495  201.6238  121.0018 C   0  0  0  0  0  0  0  0  0  0  0  0
  -11.4024  202.3188  119.9408 C   0  0  0  0  0  0  0  0  0  0  0  0
  -10.7588  201.6794  119.1312 O   0  0  0  0  0  0  0  0  0  0  0  0
  -11.4343  203.7943  119.8597 C   0  0  0  0  0  0  0  0  0  0  0  0
  -12.0418  204.5397  120.8714 C   0  0  0  0  0  0  0  0  0  0  0  0
  -12.0725  205.9166  120.7867 C   0  0  0  0  0  0  0  0  0  0  0  0
  -11.5029  206.5587  119.7023 C   0  0  0  0  0  0  0  0  0  0  0  0
  -10.8992  205.8257  118.6944 C   0  0  0  0  0  0  0  0  0  0  0  0
  -10.8616  204.4487  118.7667 C   0  0  0  0  0  0  0  0  0  0  0  0
  -14.0571  201.3467  119.5700 O   0  0  0  0  0  0  0  0  0  0  0  0
  -15.1779  202.2321  119.5330 C   0  0  0  0  0  0  0  0  0  0  0  0
  -14.2362  205.6193  117.1066 C   0  0  0  0  0  0  0  0  0  0  0  0
  -13.8835  204.3506  116.6878 C   0  0  0  0  0  0  0  0  0  0  0  0
  -14.1882  203.2536  117.4732 C   0  0  0  0  0  0  0  0  0  0  0  0
  -14.8456  203.4274  118.6771 C   0  0  0  0  0  0  0  0  0  0  0  0
  -15.2027  204.6962  119.0932 C   0  0  0  0  0  0  0  0  0  0  0  0
  -14.8936  205.7930  118.3105 C   0  0  0  0  0  0  0  0  0  0  0  0
 21 22  2  0  0  0
 21 26  1  0  0  0
 22 23  1  0  0  0
 23 24  2  0  0  0
 24 25  1  0  0  0
 24 20  1  0  0  0
 25 26  2  0  0  0
 20 19  1  0  0  0
 19  1  1  0  0  0
  1  2  1  0  0  0
  1 10  2  0  0  0
  2  3  2  0  0  0
  2  7  1  0  0  0
  3  4  1  0  0  0
  4  5  1  0  0  0
  4  6  1  0  0  0
  5  7  2  0  0  0
  7  8  1  0  0  0
  8  9  2  0  0  0
  9 10  1  0  0  0
 10 11  1  0  0  0
 11 12  2  0  0  0
 11 13  1  0  0  0
 13 14  2  0  0  0
 13 18  1  0  0  0
 14 15  1  0  0  0
 15 16  2  0  0  0
 16 17  1  0  0  0
 17 18  2  0  0  0
M  END
> <minimizedAffinity>
-0.00124

$$$$
ZINC00023841


 26 29  0  0  0  0  0  0  0  0999 V2000
  -14.0540  203.7405  117.3095 C   0  0  0  0  0  0  0  0  0  0  0  0
  -14.0634  203.7685  118.7154 C   0  0  0  0  0  0  0  0  0  0  0  0
  -14.9456  203.2584  119.6974 C   0  0  0  0  0  0  0  0  0  0  0  0
  -14.4784  203.5701  120.8712 N   0  0  0  0  0  0  0  0  0  0  0  0
  -13.2860  204.2889  120.7302 N   0  0  0  0  0  0  0  0  0  0  0  0
  -14.9066  203.3315  121.7429 H   0  0  0  0  0  0  0  0  0  0  0  0
  -13.0175  204.4186  119.3962 C   0  0  0  0  0  0  0  0  0  0  0  0
  -12.0294  204.9998  118.7195 N   0  0  0  0  0  0  0  0  0  0  0  0
  -11.9839  204.9894  117.4085 C   0  0  0  0  0  0  0  0  0  0  0  0
  -12.9870  204.3704  116.6481 C   0  0  0  0  0  0  0  0  0  0  0  0
  -12.9199  204.3763  115.1776 C   0  0  0  0  0  0  0  0  0  0  0  0
  -12.4004  203.4479  114.5887 O   0  0  0  0  0  0  0  0  0  0  0  0
  -13.4839  205.5111  114.4168 C   0  0  0  0  0  0  0  0  0  0  0  0
  -13.9417  206.6467  115.0868 C   0  0  0  0  0  0  0  0  0  0  0  0
  -14.4717  207.7004  114.3705 C   0  0  0  0  0  0  0  0  0  0  0  0
  -14.5501  207.6330  112.9914 C   0  0  0  0  0  0  0  0  0  0  0  0
  -14.0987  206.5092  112.3200 C   0  0  0  0  0  0  0  0  0  0  0  0
  -13.5667  205.4489  113.0239 C   0  0  0  0  0  0  0  0  0  0  0  0
  -15.0397  203.1248  116.6166 O   0  0  0  0  0  0  0  0  0  0  0  0
  -16.3424  203.7078  116.6838 C   0  0  0  0  0  0  0  0  0  0  0  0
  -17.4833  205.0925  112.8071 C   0  0  0  0  0  0  0  0  0  0  0  0
  -16.8736  203.8605  112.9483 C   0  0  0  0  0  0  0  0  0  0  0  0
  -16.5039  203.4119  114.2034 C   0  0  0  0  0  0  0  0  0  0  0  0
  -16.7449  204.1966  115.3160 C   0  0  0  0  0  0  0  0  0  0  0  0
  -17.3594  205.4267  115.1747 C   0  0  0  0  0  0  0  0  0  0  0  0
  -17.7242  205.8772  113.9198 C   0  0  0  0  0  0  0  0  0  0  0  0
 21 22  2  0  0  0
 21 26  1  0  0  0
 22 23  1  0  0  0
 23 24  2  0  0  0
 24 25  1  0  0  0
 24 20  1  0  0  0
 25 26  2  0  0  0
 20 19  1  0  0  0
 19  1  1  0  0  0
  1  2  1  0  0  0
  1 10  2  0  0  0
  2  3  2  0  0  0
  2  7  1  0  0  0
  3  4  1  0  0  0
  4  5  1  0  0  0
  4  6  1  0  0  0
  5  7  2  0  0  0
  7  8  1  0  0  0
  8  9  2  0  0  0
  9 10  1  0  0  0
 10 11  1  0  0  0
 11 12  2  0  0  0
 11 13  1  0  0  0
 13 14  2  0  0  0
 13 18  1  0  0  0
 14 15  1  0  0  0
 15 16  2  0  0  0
 16 17  1  0  0  0
 17 18  2  0  0  0
M  END
> <minimizedAffinity>
-0.00091

$$$$
ZINC00023841


 26 29  0  0  0  0  0  0  0  0999 V2000
   -9.3284  200.6470  117.2209 C   0  0  0  0  0  0  0  0  0  0  0  0
   -9.0033  200.2561  118.5319 C   0  0  0  0  0  0  0  0  0  0  0  0
   -9.5729  200.5200  119.8002 C   0  0  0  0  0  0  0  0  0  0  0  0
   -8.8684  199.9027  120.7035 N   0  0  0  0  0  0  0  0  0  0  0  0
   -7.8161  199.2118  120.0922 N   0  0  0  0  0  0  0  0  0  0  0  0
   -9.0515  199.9192  121.6866 H   0  0  0  0  0  0  0  0  0  0  0  0
   -7.8891  199.4233  118.7437 C   0  0  0  0  0  0  0  0  0  0  0  0
   -7.1509  199.0082  117.7166 N   0  0  0  0  0  0  0  0  0  0  0  0
   -7.4266  199.3475  116.4797 C   0  0  0  0  0  0  0  0  0  0  0  0
   -8.5143  200.1795  116.1761 C   0  0  0  0  0  0  0  0  0  0  0  0
   -8.8017  200.5535  114.7817 C   0  0  0  0  0  0  0  0  0  0  0  0
   -9.5834  199.8940  114.1239 O   0  0  0  0  0  0  0  0  0  0  0  0
   -8.1398  201.7306  114.1810 C   0  0  0  0  0  0  0  0  0  0  0  0
   -7.1304  202.3987  114.8758 C   0  0  0  0  0  0  0  0  0  0  0  0
   -6.5202  203.5000  114.3111 C   0  0  0  0  0  0  0  0  0  0  0  0
   -6.9070  203.9426  113.0592 C   0  0  0  0  0  0  0  0  0  0  0  0
   -7.9083  203.2853  112.3643 C   0  0  0  0  0  0  0  0  0  0  0  0
   -8.5264  202.1831  112.9173 C   0  0  0  0  0  0  0  0  0  0  0  0
  -10.3923  201.4457  116.9736 O   0  0  0  0  0  0  0  0  0  0  0  0
  -10.3190  202.7907  117.4499 C   0  0  0  0  0  0  0  0  0  0  0  0
  -10.3122  205.4777  114.1291 C   0  0  0  0  0  0  0  0  0  0  0  0
  -11.1790  204.4017  114.1447 C   0  0  0  0  0  0  0  0  0  0  0  0
  -11.1814  203.5314  115.2197 C   0  0  0  0  0  0  0  0  0  0  0  0
  -10.3163  203.7388  116.2782 C   0  0  0  0  0  0  0  0  0  0  0  0
   -9.4531  204.8183  116.2644 C   0  0  0  0  0  0  0  0  0  0  0  0
   -9.4472  205.6852  115.1876 C   0  0  0  0  0  0  0  0  0  0  0  0
 21 22  2  0  0  0
 21 26  1  0  0  0
 22 23  1  0  0  0
 23 24  2  0  0  0
 24 25  1  0  0  0
 24 20  1  0  0  0
 25 26  2  0  0  0
 20 19  1  0  0  0
 19  1  1  0  0  0
  1  2  1  0  0  0
  1 10  2  0  0  0
  2  3  2  0  0  0
  2  7  1  0  0  0
  3  4  1  0  0  0
  4  5  1  0  0  0
  4  6  1  0  0  0
  5  7  2  0  0  0
  7  8  1  0  0  0
  8  9  2  0  0  0
  9 10  1  0  0  0
 10 11  1  0  0  0
 11 12  2  0  0  0
 11 13  1  0  0  0
 13 14  2  0  0  0
 13 18  1  0  0  0
 14 15  1  0  0  0
 15 16  2  0  0  0
 16 17  1  0  0  0
 17 18  2  0  0  0
M  END
> <minimizedAffinity>
-0.00089

$$$$
