ZINC00011462


 26 28  0  0  0  0  0  0  0  0999 V2000
  -12.5354  206.2783  115.8063 N   0  0  0  0  0  0  0  0  0  0  0  0
  -11.8114  206.2680  114.6201 C   0  0  0  0  0  0  0  0  0  0  0  0
  -10.8722  207.0024  114.3404 O   0  0  0  0  0  0  0  0  0  0  0  0
  -13.0257  205.4241  116.0285 H   0  0  0  0  0  0  0  0  0  0  0  0
  -12.1687  205.1644  113.6802 C   0  0  0  0  0  0  0  0  0  0  0  0
  -12.1174  205.3647  112.2820 C   0  0  0  0  0  0  0  0  0  0  0  0
  -12.5046  204.3507  111.3956 C   0  0  0  0  0  0  0  0  0  0  0  0
  -12.9375  203.1449  111.9249 C   0  0  0  0  0  0  0  0  0  0  0  0
  -12.9392  202.9453  113.3048 C   0  0  0  0  0  0  0  0  0  0  0  0
  -12.5620  203.9233  114.2038 C   0  0  0  0  0  0  0  0  0  0  0  0
  -13.3558  201.6522  113.5886 N   0  0  0  0  0  0  0  0  0  0  0  0
  -13.6397  200.9318  112.4347 C   0  0  0  0  0  0  0  0  0  0  0  0
  -13.9896  199.7697  112.3934 O   0  0  0  0  0  0  0  0  0  0  0  0
  -13.4559  201.8987  111.2327 C   0  0  0  0  0  0  0  0  0  0  0  0
  -12.4694  201.3231  110.2210 C   0  0  0  0  0  0  0  0  0  0  0  0
  -14.8228  202.1500  110.5915 C   0  0  0  0  0  0  0  0  0  0  0  0
  -13.4113  201.2407  114.5120 H   0  0  0  0  0  0  0  0  0  0  0  0
  -11.1220  205.2238  118.2034 C   0  0  0  0  0  0  0  0  0  0  0  0
  -11.5731  206.6471  118.0292 C   0  0  0  0  0  0  0  0  0  0  0  0
  -11.2452  207.5453  119.0631 C   0  0  0  0  0  0  0  0  0  0  0  0
  -11.6088  208.8840  118.9865 C   0  0  0  0  0  0  0  0  0  0  0  0
  -12.3168  209.3604  117.8933 C   0  0  0  0  0  0  0  0  0  0  0  0
  -12.6160  208.4898  116.8398 C   0  0  0  0  0  0  0  0  0  0  0  0
  -12.2360  207.1394  116.8885 C   0  0  0  0  0  0  0  0  0  0  0  0
  -11.2424  209.6998  120.0153 O   0  0  0  0  0  0  0  0  0  0  0  0
  -11.4882  210.6122  119.7900 H   0  0  0  0  0  0  0  0  0  0  0  0
 18 19  1  0  0  0
 19 20  2  0  0  0
 19 24  1  0  0  0
 20 21  1  0  0  0
 21 22  2  0  0  0
 21 25  1  0  0  0
 22 23  1  0  0  0
 23 24  2  0  0  0
 24  1  1  0  0  0
  1  2  1  0  0  0
  1  4  1  0  0  0
  2  3  2  0  0  0
  2  5  1  0  0  0
  5  6  2  0  0  0
  5 10  1  0  0  0
  6  7  1  0  0  0
  7  8  2  0  0  0
  8  9  1  0  0  0
  8 14  1  0  0  0
  9 10  2  0  0  0
  9 11  1  0  0  0
 11 12  1  0  0  0
 11 17  1  0  0  0
 12 13  2  0  0  0
 12 14  1  0  0  0
 14 15  1  0  0  0
 14 16  1  0  0  0
 25 26  1  0  0  0
M  END
> <minimizedAffinity>
-0.00006

$$$$
ZINC00011462


 26 28  0  0  0  0  0  0  0  0999 V2000
  -15.4326  204.3435  112.6460 N   0  0  0  0  0  0  0  0  0  0  0  0
  -15.0255  203.3366  111.7790 C   0  0  0  0  0  0  0  0  0  0  0  0
  -15.5078  203.0901  110.6807 O   0  0  0  0  0  0  0  0  0  0  0  0
  -14.7474  204.6411  113.3254 H   0  0  0  0  0  0  0  0  0  0  0  0
  -13.8080  202.5910  112.2158 C   0  0  0  0  0  0  0  0  0  0  0  0
  -13.6649  201.2147  111.9280 C   0  0  0  0  0  0  0  0  0  0  0  0
  -12.5507  200.4969  112.3833 C   0  0  0  0  0  0  0  0  0  0  0  0
  -11.5909  201.1717  113.1215 C   0  0  0  0  0  0  0  0  0  0  0  0
  -11.7222  202.5393  113.3586 C   0  0  0  0  0  0  0  0  0  0  0  0
  -12.8066  203.2748  112.9221 C   0  0  0  0  0  0  0  0  0  0  0  0
  -10.6188  202.9986  114.0640 N   0  0  0  0  0  0  0  0  0  0  0  0
   -9.7063  201.9829  114.3220 C   0  0  0  0  0  0  0  0  0  0  0  0
   -8.6413  202.1149  114.8904 O   0  0  0  0  0  0  0  0  0  0  0  0
  -10.3214  200.6639  113.7784 C   0  0  0  0  0  0  0  0  0  0  0  0
   -9.3699  199.9875  112.7959 C   0  0  0  0  0  0  0  0  0  0  0  0
  -10.6394  199.7464  114.9615 C   0  0  0  0  0  0  0  0  0  0  0  0
  -10.4494  203.9603  114.3316 H   0  0  0  0  0  0  0  0  0  0  0  0
  -14.7474  207.1217  111.8283 C   0  0  0  0  0  0  0  0  0  0  0  0
  -16.1452  206.5830  111.9529 C   0  0  0  0  0  0  0  0  0  0  0  0
  -17.1928  207.4553  111.5994 C   0  0  0  0  0  0  0  0  0  0  0  0
  -18.5178  207.0437  111.6700 C   0  0  0  0  0  0  0  0  0  0  0  0
  -18.8365  205.7660  112.1053 C   0  0  0  0  0  0  0  0  0  0  0  0
  -17.8060  204.8745  112.4226 C   0  0  0  0  0  0  0  0  0  0  0  0
  -16.4605  205.2647  112.3345 C   0  0  0  0  0  0  0  0  0  0  0  0
  -19.4788  207.9348  111.2952 O   0  0  0  0  0  0  0  0  0  0  0  0
  -20.3411  207.4881  111.3169 H   0  0  0  0  0  0  0  0  0  0  0  0
 18 19  1  0  0  0
 19 20  2  0  0  0
 19 24  1  0  0  0
 20 21  1  0  0  0
 21 22  2  0  0  0
 21 25  1  0  0  0
 22 23  1  0  0  0
 23 24  2  0  0  0
 24  1  1  0  0  0
  1  2  1  0  0  0
  1  4  1  0  0  0
  2  3  2  0  0  0
  2  5  1  0  0  0
  5  6  2  0  0  0
  5 10  1  0  0  0
  6  7  1  0  0  0
  7  8  2  0  0  0
  8  9  1  0  0  0
  8 14  1  0  0  0
  9 10  2  0  0  0
  9 11  1  0  0  0
 11 12  1  0  0  0
 11 17  1  0  0  0
 12 13  2  0  0  0
 12 14  1  0  0  0
 14 15  1  0  0  0
 14 16  1  0  0  0
 25 26  1  0  0  0
M  END
> <minimizedAffinity>
-0.00006

$$$$
ZINC00011462


 26 28  0  0  0  0  0  0  0  0999 V2000
   -9.9419  206.0208  113.8441 N   0  0  0  0  0  0  0  0  0  0  0  0
   -8.7867  205.6369  113.1738 C   0  0  0  0  0  0  0  0  0  0  0  0
   -7.6422  205.9653  113.4602 O   0  0  0  0  0  0  0  0  0  0  0  0
  -10.7426  205.4185  113.7188 H   0  0  0  0  0  0  0  0  0  0  0  0
   -8.9992  204.6364  112.0862 C   0  0  0  0  0  0  0  0  0  0  0  0
   -8.2019  204.6612  110.9194 C   0  0  0  0  0  0  0  0  0  0  0  0
   -8.4330  203.7601  109.8713 C   0  0  0  0  0  0  0  0  0  0  0  0
   -9.4623  202.8419  110.0088 C   0  0  0  0  0  0  0  0  0  0  0  0
  -10.2108  202.7985  111.1843 C   0  0  0  0  0  0  0  0  0  0  0  0
  -10.0066  203.6710  112.2352 C   0  0  0  0  0  0  0  0  0  0  0  0
  -11.1375  201.7681  111.1097 N   0  0  0  0  0  0  0  0  0  0  0  0
  -11.0516  201.0770  109.9071 C   0  0  0  0  0  0  0  0  0  0  0  0
  -11.7195  200.1118  109.5957 O   0  0  0  0  0  0  0  0  0  0  0  0
   -9.9750  201.7901  109.0435 C   0  0  0  0  0  0  0  0  0  0  0  0
   -8.8951  200.8060  108.6035 C   0  0  0  0  0  0  0  0  0  0  0  0
  -10.6616  202.4343  107.8367 C   0  0  0  0  0  0  0  0  0  0  0  0
  -11.7796  201.4992  111.8448 H   0  0  0  0  0  0  0  0  0  0  0  0
  -10.3622  204.7927  116.5221 C   0  0  0  0  0  0  0  0  0  0  0  0
  -10.1352  206.2580  116.2752 C   0  0  0  0  0  0  0  0  0  0  0  0
  -10.0646  207.0871  117.4114 C   0  0  0  0  0  0  0  0  0  0  0  0
   -9.8454  208.4531  117.2846 C   0  0  0  0  0  0  0  0  0  0  0  0
   -9.7058  209.0311  116.0316 C   0  0  0  0  0  0  0  0  0  0  0  0
   -9.7343  208.2157  114.8951 C   0  0  0  0  0  0  0  0  0  0  0  0
   -9.9308  206.8301  115.0048 C   0  0  0  0  0  0  0  0  0  0  0  0
   -9.7706  209.1915  118.4280 O   0  0  0  0  0  0  0  0  0  0  0  0
   -9.5347  210.1040  118.1928 H   0  0  0  0  0  0  0  0  0  0  0  0
 18 19  1  0  0  0
 19 20  2  0  0  0
 19 24  1  0  0  0
 20 21  1  0  0  0
 21 22  2  0  0  0
 21 25  1  0  0  0
 22 23  1  0  0  0
 23 24  2  0  0  0
 24  1  1  0  0  0
  1  2  1  0  0  0
  1  4  1  0  0  0
  2  3  2  0  0  0
  2  5  1  0  0  0
  5  6  2  0  0  0
  5 10  1  0  0  0
  6  7  1  0  0  0
  7  8  2  0  0  0
  8  9  1  0  0  0
  8 14  1  0  0  0
  9 10  2  0  0  0
  9 11  1  0  0  0
 11 12  1  0  0  0
 11 17  1  0  0  0
 12 13  2  0  0  0
 12 14  1  0  0  0
 14 15  1  0  0  0
 14 16  1  0  0  0
 25 26  1  0  0  0
M  END
> <minimizedAffinity>
-0.00006

$$$$
