ZINC00003491


 23 26  0  0  0  0  0  0  0  0999 V2000
  -15.2489  203.7253  113.4735 C   0  0  0  0  0  0  0  0  0  0  0  0
  -14.3296  202.9228  114.1240 C   0  0  0  0  0  0  0  0  0  0  0  0
  -14.2407  202.8518  115.5247 C   0  0  0  0  0  0  0  0  0  0  0  0
  -15.1043  203.6275  116.3117 C   0  0  0  0  0  0  0  0  0  0  0  0
  -16.0256  204.4385  115.6301 C   0  0  0  0  0  0  0  0  0  0  0  0
  -16.1315  204.5172  114.2425 C   0  0  0  0  0  0  0  0  0  0  0  0
  -17.1088  205.3809  113.7236 C   0  0  0  0  0  0  0  0  0  0  0  0
  -17.8963  206.0922  114.6105 C   0  0  0  0  0  0  0  0  0  0  0  0
  -17.7645  205.9895  115.9922 C   0  0  0  0  0  0  0  0  0  0  0  0
  -16.8100  205.1455  116.5349 C   0  0  0  0  0  0  0  0  0  0  0  0
  -16.3848  204.7808  117.8064 N   0  0  0  0  0  0  0  0  0  0  0  0
  -15.3714  203.8797  117.7219 C   0  0  0  0  0  0  0  0  0  0  0  0
  -14.7873  203.3702  118.6626 O   0  0  0  0  0  0  0  0  0  0  0  0
  -17.2767  205.5145  112.3891 F   0  0  0  0  0  0  0  0  0  0  0  0
  -16.7576  205.1218  118.6349 H   0  0  0  0  0  0  0  0  0  0  0  0
  -13.2433  201.9739  116.1612 C   0  0  0  0  0  0  0  0  0  0  0  0
  -11.9342  201.8430  115.7924 C   0  0  0  0  0  0  0  0  0  0  0  0
  -11.3492  200.9097  116.6584 C   0  0  0  0  0  0  0  0  0  0  0  0
  -12.3027  200.4973  117.5255 C   0  0  0  0  0  0  0  0  0  0  0  0
  -13.4637  201.1415  117.2305 N   0  0  0  0  0  0  0  0  0  0  0  0
  -14.3069  201.0301  117.6976 H   0  0  0  0  0  0  0  0  0  0  0  0
  -14.1482  204.2605  111.4389 C   0  0  0  0  0  0  0  0  0  0  0  0
  -15.2986  203.7553  112.1201 O   0  0  0  0  0  0  0  0  0  0  0  0
 22 23  1  0  0  0
 23  1  1  0  0  0
  1  2  2  0  0  0
  1  6  1  0  0  0
  2  3  1  0  0  0
  3  4  2  0  0  0
  3 16  1  0  0  0
  4  5  1  0  0  0
  4 12  1  0  0  0
  5  6  2  0  0  0
  5 10  1  0  0  0
  6  7  1  0  0  0
  7  8  2  0  0  0
  7 14  1  0  0  0
  8  9  1  0  0  0
  9 10  2  0  0  0
 10 11  1  0  0  0
 11 12  1  0  0  0
 11 15  1  0  0  0
 12 13  2  0  0  0
 16 17  2  0  0  0
 16 20  1  0  0  0
 17 18  1  0  0  0
 18 19  2  0  0  0
 19 20  1  0  0  0
 20 21  1  0  0  0
M  END
> <minimizedAffinity>
-0.00000

$$$$
ZINC00003491


 23 26  0  0  0  0  0  0  0  0999 V2000
  -16.2005  202.2126  116.8357 C   0  0  0  0  0  0  0  0  0  0  0  0
  -15.6130  202.4302  118.0685 C   0  0  0  0  0  0  0  0  0  0  0  0
  -16.0772  201.8239  119.2483 C   0  0  0  0  0  0  0  0  0  0  0  0
  -17.1871  200.9682  119.1945 C   0  0  0  0  0  0  0  0  0  0  0  0
  -17.7705  200.7661  117.9337 C   0  0  0  0  0  0  0  0  0  0  0  0
  -17.3203  201.3544  116.7529 C   0  0  0  0  0  0  0  0  0  0  0  0
  -18.0210  201.0449  115.5766 C   0  0  0  0  0  0  0  0  0  0  0  0
  -19.1018  200.1863  115.6610 C   0  0  0  0  0  0  0  0  0  0  0  0
  -19.5248  199.6151  116.8575 C   0  0  0  0  0  0  0  0  0  0  0  0
  -18.8540  199.9002  118.0351 C   0  0  0  0  0  0  0  0  0  0  0  0
  -18.9617  199.5462  119.3743 N   0  0  0  0  0  0  0  0  0  0  0  0
  -17.9906  200.1582  120.1012 C   0  0  0  0  0  0  0  0  0  0  0  0
  -17.8207  200.0486  121.3032 O   0  0  0  0  0  0  0  0  0  0  0  0
  -17.6485  201.5732  114.3896 F   0  0  0  0  0  0  0  0  0  0  0  0
  -19.6346  198.9488  119.7376 H   0  0  0  0  0  0  0  0  0  0  0  0
  -15.4066  202.0904  120.5328 C   0  0  0  0  0  0  0  0  0  0  0  0
  -14.9987  203.3118  120.9897 C   0  0  0  0  0  0  0  0  0  0  0  0
  -14.4116  203.1114  122.2460 C   0  0  0  0  0  0  0  0  0  0  0  0
  -14.4739  201.7886  122.5241 C   0  0  0  0  0  0  0  0  0  0  0  0
  -15.0800  201.1557  121.4840 N   0  0  0  0  0  0  0  0  0  0  0  0
  -15.2518  200.2025  121.4242 H   0  0  0  0  0  0  0  0  0  0  0  0
  -15.7850  204.2435  115.6781 C   0  0  0  0  0  0  0  0  0  0  0  0
  -15.7126  202.8169  115.7259 O   0  0  0  0  0  0  0  0  0  0  0  0
 22 23  1  0  0  0
 23  1  1  0  0  0
  1  2  2  0  0  0
  1  6  1  0  0  0
  2  3  1  0  0  0
  3  4  2  0  0  0
  3 16  1  0  0  0
  4  5  1  0  0  0
  4 12  1  0  0  0
  5  6  2  0  0  0
  5 10  1  0  0  0
  6  7  1  0  0  0
  7  8  2  0  0  0
  7 14  1  0  0  0
  8  9  1  0  0  0
  9 10  2  0  0  0
 10 11  1  0  0  0
 11 12  1  0  0  0
 11 15  1  0  0  0
 12 13  2  0  0  0
 16 17  2  0  0  0
 16 20  1  0  0  0
 17 18  1  0  0  0
 18 19  2  0  0  0
 19 20  1  0  0  0
 20 21  1  0  0  0
M  END
> <minimizedAffinity>
-0.00000

$$$$
ZINC00003491


 23 26  0  0  0  0  0  0  0  0999 V2000
  -11.3911  205.7330  120.6922 C   0  0  0  0  0  0  0  0  0  0  0  0
  -10.6250  205.1533  119.6975 C   0  0  0  0  0  0  0  0  0  0  0  0
   -9.2248  205.2653  119.6552 C   0  0  0  0  0  0  0  0  0  0  0  0
   -8.5604  206.0000  120.6482 C   0  0  0  0  0  0  0  0  0  0  0  0
   -9.3584  206.5839  121.6447 C   0  0  0  0  0  0  0  0  0  0  0  0
  -10.7470  206.4787  121.7055 C   0  0  0  0  0  0  0  0  0  0  0  0
  -11.3914  207.1260  122.7712 C   0  0  0  0  0  0  0  0  0  0  0  0
  -10.6183  207.8204  123.6838 C   0  0  0  0  0  0  0  0  0  0  0  0
   -9.2320  207.9049  123.5939 C   0  0  0  0  0  0  0  0  0  0  0  0
   -8.5668  207.2765  122.5544 C   0  0  0  0  0  0  0  0  0  0  0  0
   -7.2506  207.1319  122.1337 N   0  0  0  0  0  0  0  0  0  0  0  0
   -7.1991  206.3801  121.0032 C   0  0  0  0  0  0  0  0  0  0  0  0
   -6.1893  206.0758  120.3921 O   0  0  0  0  0  0  0  0  0  0  0  0
  -12.7356  207.0725  122.9029 F   0  0  0  0  0  0  0  0  0  0  0  0
   -6.4797  207.5141  122.5824 H   0  0  0  0  0  0  0  0  0  0  0  0
   -8.4614  204.6210  118.5723 C   0  0  0  0  0  0  0  0  0  0  0  0
   -8.7816  204.6335  117.2441 C   0  0  0  0  0  0  0  0  0  0  0  0
   -7.7929  203.9039  116.5707 C   0  0  0  0  0  0  0  0  0  0  0  0
   -6.9025  203.4683  117.4918 C   0  0  0  0  0  0  0  0  0  0  0  0
   -7.3015  203.9009  118.7180 N   0  0  0  0  0  0  0  0  0  0  0  0
   -6.8431  203.7284  119.5556 H   0  0  0  0  0  0  0  0  0  0  0  0
  -13.4516  206.1694  119.5962 C   0  0  0  0  0  0  0  0  0  0  0  0
  -12.7383  205.5920  120.6919 O   0  0  0  0  0  0  0  0  0  0  0  0
 22 23  1  0  0  0
 23  1  1  0  0  0
  1  2  2  0  0  0
  1  6  1  0  0  0
  2  3  1  0  0  0
  3  4  2  0  0  0
  3 16  1  0  0  0
  4  5  1  0  0  0
  4 12  1  0  0  0
  5  6  2  0  0  0
  5 10  1  0  0  0
  6  7  1  0  0  0
  7  8  2  0  0  0
  7 14  1  0  0  0
  8  9  1  0  0  0
  9 10  2  0  0  0
 10 11  1  0  0  0
 11 12  1  0  0  0
 11 15  1  0  0  0
 12 13  2  0  0  0
 16 17  2  0  0  0
 16 20  1  0  0  0
 17 18  1  0  0  0
 18 19  2  0  0  0
 19 20  1  0  0  0
 20 21  1  0  0  0
M  END
> <minimizedAffinity>
0.00000

$$$$
