ZINC00023841
 OpenBabel07192212403D

 26 29  0  0  0  0  0  0  0  0999 V2000
  -13.4564  201.1650  120.7687 C   0  0  0  0  0  0  0  0  0  0  0  0
  -14.1193  200.5088  121.8209 C   0  0  0  0  0  0  0  0  0  0  0  0
  -15.4023  199.9270  121.9560 C   0  0  0  0  0  0  0  0  0  0  0  0
  -15.5109  199.4466  123.1604 N   0  0  0  0  0  0  0  0  0  0  0  0
  -14.3287  199.6811  123.8717 N   0  0  0  0  0  0  0  0  0  0  0  0
  -16.3176  198.9799  123.5233 H   0  0  0  0  0  0  0  0  0  0  0  0
  -13.4566  200.3398  123.0507 C   0  0  0  0  0  0  0  0  0  0  0  0
  -12.2165  200.7941  123.2178 N   0  0  0  0  0  0  0  0  0  0  0  0
  -11.5645  201.4061  122.2580 C   0  0  0  0  0  0  0  0  0  0  0  0
  -12.1495  201.6238  121.0018 C   0  0  0  0  0  0  0  0  0  0  0  0
  -11.4024  202.3188  119.9408 C   0  0  0  0  0  0  0  0  0  0  0  0
  -10.7588  201.6794  119.1312 O   0  0  0  0  0  0  0  0  0  0  0  0
  -11.4343  203.7943  119.8597 C   0  0  0  0  0  0  0  0  0  0  0  0
  -12.0418  204.5397  120.8714 C   0  0  0  0  0  0  0  0  0  0  0  0
  -12.0725  205.9166  120.7867 C   0  0  0  0  0  0  0  0  0  0  0  0
  -11.5029  206.5587  119.7023 C   0  0  0  0  0  0  0  0  0  0  0  0
  -10.8992  205.8257  118.6944 C   0  0  0  0  0  0  0  0  0  0  0  0
  -10.8616  204.4487  118.7667 C   0  0  0  0  0  0  0  0  0  0  0  0
  -14.0571  201.3467  119.5700 O   0  0  0  0  0  0  0  0  0  0  0  0
  -15.1779  202.2321  119.5330 C   0  0  0  0  0  0  0  0  0  0  0  0
  -14.2362  205.6193  117.1066 C   0  0  0  0  0  0  0  0  0  0  0  0
  -13.8835  204.3506  116.6878 C   0  0  0  0  0  0  0  0  0  0  0  0
  -14.1882  203.2536  117.4732 C   0  0  0  0  0  0  0  0  0  0  0  0
  -14.8456  203.4274  118.6771 C   0  0  0  0  0  0  0  0  0  0  0  0
  -15.2027  204.6962  119.0932 C   0  0  0  0  0  0  0  0  0  0  0  0
  -14.8936  205.7930  118.3105 C   0  0  0  0  0  0  0  0  0  0  0  0
  1  2  1  0  0  0  0
  1 10  2  0  0  0  0
  2  3  2  0  0  0  0
  2  7  1  0  0  0  0
  3  4  1  0  0  0  0
  4  5  1  0  0  0  0
  4  6  1  0  0  0  0
  5  7  2  0  0  0  0
  7  8  1  0  0  0  0
  8  9  2  0  0  0  0
  9 10  1  0  0  0  0
 10 11  1  0  0  0  0
 11 12  2  0  0  0  0
 11 13  1  0  0  0  0
 13 14  2  0  0  0  0
 13 18  1  0  0  0  0
 14 15  1  0  0  0  0
 15 16  2  0  0  0  0
 16 17  1  0  0  0  0
 17 18  2  0  0  0  0
 19  1  1  0  0  0  0
 20 19  1  0  0  0  0
 21 22  2  0  0  0  0
 21 26  1  0  0  0  0
 22 23  1  0  0  0  0
 23 24  2  0  0  0  0
 24 25  1  0  0  0  0
 24 20  1  0  0  0  0
 25 26  2  0  0  0  0
M  END
>  <minimizedAffinity>
-0.00124

$$$$
