ZINC00023841
 OpenBabel07192212403D

 26 29  0  0  0  0  0  0  0  0999 V2000
  -13.2418  206.2205  118.1857 C   0  0  0  0  0  0  0  0  0  0  0  0
  -12.7619  207.4356  117.6653 C   0  0  0  0  0  0  0  0  0  0  0  0
  -13.3586  208.6933  117.4108 C   0  0  0  0  0  0  0  0  0  0  0  0
  -12.4522  209.4855  116.9165 N   0  0  0  0  0  0  0  0  0  0  0  0
  -11.2324  208.8066  116.8197 N   0  0  0  0  0  0  0  0  0  0  0  0
  -12.6043  210.4365  116.6467 H   0  0  0  0  0  0  0  0  0  0  0  0
  -11.4116  207.5327  117.2817 C   0  0  0  0  0  0  0  0  0  0  0  0
  -10.5961  206.4884  117.4101 N   0  0  0  0  0  0  0  0  0  0  0  0
  -11.0061  205.3411  117.8963 C   0  0  0  0  0  0  0  0  0  0  0  0
  -12.3367  205.1523  118.2980 C   0  0  0  0  0  0  0  0  0  0  0  0
  -12.7775  203.8543  118.8347 C   0  0  0  0  0  0  0  0  0  0  0  0
  -12.7639  203.6559  120.0343 O   0  0  0  0  0  0  0  0  0  0  0  0
  -13.2363  202.7920  117.9152 C   0  0  0  0  0  0  0  0  0  0  0  0
  -13.1103  202.9560  116.5348 C   0  0  0  0  0  0  0  0  0  0  0  0
  -13.5454  201.9623  115.6820 C   0  0  0  0  0  0  0  0  0  0  0  0
  -14.1057  200.8054  116.1922 C   0  0  0  0  0  0  0  0  0  0  0  0
  -14.2348  200.6360  117.5604 C   0  0  0  0  0  0  0  0  0  0  0  0
  -13.8039  201.6215  118.4240 C   0  0  0  0  0  0  0  0  0  0  0  0
  -14.5327  206.0855  118.5677 O   0  0  0  0  0  0  0  0  0  0  0  0
  -15.5231  206.1372  117.5392 C   0  0  0  0  0  0  0  0  0  0  0  0
  -17.4983  202.3589  117.2745 C   0  0  0  0  0  0  0  0  0  0  0  0
  -17.2364  202.9158  118.5117 C   0  0  0  0  0  0  0  0  0  0  0  0
  -16.5968  204.1391  118.5978 C   0  0  0  0  0  0  0  0  0  0  0  0
  -16.2199  204.8040  117.4456 C   0  0  0  0  0  0  0  0  0  0  0  0
  -16.4866  204.2488  116.2081 C   0  0  0  0  0  0  0  0  0  0  0  0
  -17.1214  203.0238  116.1223 C   0  0  0  0  0  0  0  0  0  0  0  0
  1  2  1  0  0  0  0
  1 10  2  0  0  0  0
  2  3  2  0  0  0  0
  2  7  1  0  0  0  0
  3  4  1  0  0  0  0
  4  5  1  0  0  0  0
  4  6  1  0  0  0  0
  5  7  2  0  0  0  0
  7  8  1  0  0  0  0
  8  9  2  0  0  0  0
  9 10  1  0  0  0  0
 10 11  1  0  0  0  0
 11 12  2  0  0  0  0
 11 13  1  0  0  0  0
 13 14  2  0  0  0  0
 13 18  1  0  0  0  0
 14 15  1  0  0  0  0
 15 16  2  0  0  0  0
 16 17  1  0  0  0  0
 17 18  2  0  0  0  0
 19  1  1  0  0  0  0
 20 19  1  0  0  0  0
 21 22  2  0  0  0  0
 21 26  1  0  0  0  0
 22 23  1  0  0  0  0
 23 24  2  0  0  0  0
 24 25  1  0  0  0  0
 24 20  1  0  0  0  0
 25 26  2  0  0  0  0
M  END
>  <minimizedAffinity>
-0.00119

$$$$
