# created with PyMOL 2.5.0
@<TRIPOS>MOLECULE
cocrystal/docking_cocrystal/1b38_ATP_LIG.pdb
47 49 1                 
SMALL
USER_CHARGES
@<TRIPOS>ATOM
1	 H06	-10.353	204.019	115.488	 H	1	UNK0	0.000	
2	 H03	-11.767	202.482	116.884	 H	1	UNK0	0.000	
3	 H07	-9.006	206.675	116.732	 H	1	UNK0	0.000	
4	 H08	-8.049	209.137	111.183	 H	1	UNK0	0.000	
5	 H13	-13.069	208.220	114.475	 H	1	UNK0	0.000	
6	 H09	-7.444	209.109	112.824	 H	1	UNK0	0.000	
7	 H14	-16.913	205.688	115.304	 H	1	UNK0	0.000	
8	 H11	-13.575	206.521	117.290	 H	1	UNK0	0.000	
9	 H02	-12.520	204.505	118.751	 H	1	UNK0	0.000	
10	 H12	-14.715	205.314	117.790	 H	1	UNK0	0.000	
11	 H01	-13.670	203.594	116.371	 H	1	UNK0	0.000	
12	 H15	-13.447	204.167	113.940	 H	1	UNK0	0.000	
13	 H10	-11.598	206.508	110.917	 H	1	UNK0	0.000	
14	 H16	-13.927	205.269	110.735	 H	1	UNK0	0.000	
15	 H05	-9.464	203.581	117.027	 H	1	UNK0	0.000	
16	 H04	-10.728	205.997	117.757	 H	1	UNK0	0.000	
17	  C1	-13.084	204.482	116.608	C.3	1	UNK0	0.000	
18	  O1	-12.265	204.889	115.505	O.3	1	UNK0	0.000	
19	  C2	-12.130	204.212	117.776	C.3	1	UNK0	0.000	
20	  O2	-11.834	202.802	117.786	O.3	1	UNK0	0.000	
21	  C3	-10.832	204.987	117.358	C.3	1	UNK0	0.000	
22	  O3	-9.731	204.133	117.765	O.3	1	UNK0	0.000	
23	  C4	-10.907	204.898	115.819	C.3	1	UNK0	0.000	
24	  N1	-10.345	206.075	115.164	N.pl3	1	UNK0	0.000	
25	  C5	-9.297	206.753	115.684	C.2	1	UNK0	0.000	
26	  N2	-8.681	207.487	114.858	N.2	1	UNK0	0.000	
27	  C6	-9.294	207.332	113.703	C.2	1	UNK0	0.000	
28	  C7	-9.047	207.927	112.462	C.2	1	UNK0	0.000	
29	  N3	-8.106	208.792	112.131	N.pl3	1	UNK0	0.000	
30	  N4	-9.892	207.551	111.476	N.2	1	UNK0	0.000	
31	  C8	-10.915	206.702	111.744	C.2	1	UNK0	0.000	
32	  N5	-11.191	206.086	112.866	N.2	1	UNK0	0.000	
33	  C9	-10.358	206.470	113.842	C.2	1	UNK0	0.000	
34	 C10	-14.067	205.605	116.963	C.3	1	UNK0	0.000	
35	  O4	-14.821	205.768	115.745	O.3	1	UNK0	0.000	
36	  P1	-14.741	207.148	114.957	P.3	1	UNK0	0.000	
37	  O5	-13.322	207.294	114.456	O.3	1	UNK0	0.000	
38	  O6	-15.257	208.212	115.778	O.co2	1	UNK0	0.000	
39	  O7	-15.530	206.893	113.549	O.3	1	UNK0	0.000	
40	  P2	-16.746	205.866	113.325	P.3	1	UNK0	0.000	
41	  O8	-17.854	206.639	112.724	O.co2	1	UNK0	0.000	
42	  O9	-17.035	205.118	114.541	O.3	1	UNK0	0.000	
43	 O10	-15.990	204.996	112.225	O.3	1	UNK0	0.000	
44	  P3	-14.630	204.202	112.335	P.3	1	UNK0	0.000	
45	 O11	-13.711	204.816	113.284	O.3	1	UNK0	0.000	
46	 O12	-14.899	202.757	112.555	O.co2	1	UNK0	0.000	
47	 O13	-13.965	204.342	110.979	O.3	1	UNK0	0.000	
@<TRIPOS>BOND
1 11 17 1
2 17 18 1
3 17 19 1
4 17 34 1
5 18 23 1
6 9 19 1
7 19 20 1
8 19 21 1
9 2 20 1
10 16 21 1
11 21 22 1
12 21 23 1
13 15 22 1
14 1 23 1
15 23 24 1
16 24 25 1
17 24 33 1
18 3 25 1
19 25 26 2
20 26 27 1
21 27 28 2
22 27 33 1
23 28 29 1
24 28 30 1
25 4 29 1
26 6 29 1
27 30 31 2
28 13 31 1
29 31 32 1
30 32 33 2
31 8 34 1
32 10 34 1
33 34 35 1
34 35 36 1
35 36 37 1
36 36 38 2
37 36 39 1
38 5 37 1
39 39 40 1
40 40 41 2
41 40 42 1
42 40 43 1
43 7 42 1
44 43 44 1
45 44 45 1
46 44 46 2
47 44 47 1
48 12 45 1
49 14 47 1
@<TRIPOS>SUBSTRUCTURE
1	UNK0	1	GROUP	1 ****	UNK
