# created with PyMOL 2.5.0
@<TRIPOS>MOLECULE
cocrystal/docking_cocrystal/1b38_ATP_LIG.pdb
31 33 1                 
SMALL
USER_CHARGES
@<TRIPOS>ATOM
1	  C1	-13.084	204.482	116.608	C.3	1	UNK0	0.000	
2	  O1	-12.265	204.889	115.505	O.3	1	UNK0	0.000	
3	  C2	-12.130	204.212	117.776	C.3	1	UNK0	0.000	
4	  O2	-11.834	202.802	117.786	O.3	1	UNK0	0.000	
5	  C3	-10.832	204.987	117.358	C.3	1	UNK0	0.000	
6	  O3	-9.731	204.133	117.765	O.3	1	UNK0	0.000	
7	  C4	-10.907	204.898	115.819	C.3	1	UNK0	0.000	
8	  N1	-10.345	206.075	115.164	N.pl3	1	UNK0	0.000	
9	  C5	-9.297	206.753	115.684	C.2	1	UNK0	0.000	
10	  N2	-8.681	207.487	114.858	N.2	1	UNK0	0.000	
11	  C6	-9.294	207.332	113.703	C.2	1	UNK0	0.000	
12	  C7	-9.047	207.927	112.462	C.2	1	UNK0	0.000	
13	  N3	-8.106	208.792	112.131	N.pl3	1	UNK0	0.000	
14	  N4	-9.892	207.551	111.476	N.2	1	UNK0	0.000	
15	  C8	-10.915	206.702	111.744	C.2	1	UNK0	0.000	
16	  N5	-11.191	206.086	112.866	N.2	1	UNK0	0.000	
17	  C9	-10.358	206.470	113.842	C.2	1	UNK0	0.000	
18	 C10	-14.067	205.605	116.963	C.3	1	UNK0	0.000	
19	  O4	-14.821	205.768	115.745	O.3	1	UNK0	0.000	
20	  P1	-14.741	207.148	114.957	P.3	1	UNK0	0.000	
21	  O5	-13.322	207.294	114.456	O.co2	1	UNK0	0.000	
22	  O6	-15.257	208.212	115.778	O.co2	1	UNK0	0.000	
23	  O7	-15.530	206.893	113.549	O.3	1	UNK0	0.000	
24	  P2	-16.746	205.866	113.325	P.3	1	UNK0	0.000	
25	  O8	-17.854	206.639	112.724	O.co2	1	UNK0	0.000	
26	  O9	-17.035	205.118	114.541	O.co2	1	UNK0	0.000	
27	 O10	-15.990	204.996	112.225	O.3	1	UNK0	0.000	
28	  P3	-14.630	204.202	112.335	P.3	1	UNK0	0.000	
29	 O11	-13.711	204.816	113.284	O.co2	1	UNK0	0.000	
30	 O12	-14.899	202.757	112.555	O.co2	1	UNK0	0.000	
31	 O13	-13.965	204.342	110.979	O.co2	1	UNK0	0.000	
@<TRIPOS>BOND
1 1 2 1
2 1 3 1
3 1 18 1
4 2 7 1
5 3 4 1
6 3 5 1
7 5 6 1
8 5 7 1
9 7 8 1
10 8 9 1
11 8 17 1
12 9 10 2
13 10 11 1
14 11 12 2
15 11 17 1
16 12 13 1
17 12 14 1
18 14 15 2
19 15 16 1
20 16 17 2
21 18 19 1
22 19 20 1
23 20 21 1
24 20 22 2
25 20 23 1
26 23 24 1
27 24 25 2
28 24 26 1
29 24 27 1
30 27 28 1
31 28 29 1
32 28 30 2
33 28 31 1
@<TRIPOS>SUBSTRUCTURE
1	UNK0	1	GROUP	1 ****	UNK
