# created with PyMOL 2.5.0
@<TRIPOS>MOLECULE
cocrystal/docking_cocrystal/1b39_ATP_LIG.pdb
31 33 1                 
SMALL
USER_CHARGES
@<TRIPOS>ATOM
1	  C1	-13.172	204.703	116.620	C.3	1	UNK0	0.000	
2	  O1	-12.285	205.081	115.551	O.3	1	UNK0	0.000	
3	  C2	-12.304	204.337	117.833	C.3	1	UNK0	0.000	
4	  O2	-12.070	202.899	117.677	O.3	1	UNK0	0.000	
5	  C3	-10.980	205.098	117.451	C.3	1	UNK0	0.000	
6	  O3	-9.892	204.429	118.138	O.3	1	UNK0	0.000	
7	  C4	-10.941	204.924	115.904	C.3	1	UNK0	0.000	
8	  N1	-10.309	206.041	115.179	N.pl3	1	UNK0	0.000	
9	  C5	-9.176	206.665	115.606	C.2	1	UNK0	0.000	
10	  N2	-8.504	207.321	114.745	N.2	1	UNK0	0.000	
11	  C6	-9.208	207.201	113.642	C.2	1	UNK0	0.000	
12	  C7	-8.949	207.712	112.389	C.2	1	UNK0	0.000	
13	  N3	-7.914	208.449	112.012	N.pl3	1	UNK0	0.000	
14	  N4	-9.841	207.401	111.421	N.2	1	UNK0	0.000	
15	  C8	-10.925	206.617	111.718	C.2	1	UNK0	0.000	
16	  N5	-11.252	206.087	112.888	N.2	1	UNK0	0.000	
17	  C9	-10.336	206.422	113.832	C.2	1	UNK0	0.000	
18	 C10	-14.075	205.888	116.960	C.3	1	UNK0	0.000	
19	  O4	-15.075	205.985	115.894	O.3	1	UNK0	0.000	
20	  P1	-14.853	207.255	114.992	P.3	1	UNK0	0.000	
21	  O5	-13.506	207.219	114.312	O.co2	1	UNK0	0.000	
22	  O6	-14.911	208.524	115.751	O.co2	1	UNK0	0.000	
23	  O7	-15.958	207.126	113.812	O.3	1	UNK0	0.000	
24	  P2	-16.900	205.929	113.246	P.3	1	UNK0	0.000	
25	  O8	-18.009	206.478	112.488	O.co2	1	UNK0	0.000	
26	  O9	-17.381	205.177	114.432	O.co2	1	UNK0	0.000	
27	 O10	-15.838	205.064	112.439	O.3	1	UNK0	0.000	
28	  P3	-14.849	203.984	113.041	P.3	1	UNK0	0.000	
29	 O11	-15.250	203.489	114.364	O.co2	1	UNK0	0.000	
30	 O12	-14.718	202.869	112.070	O.co2	1	UNK0	0.000	
31	 O13	-13.481	204.582	113.132	O.co2	1	UNK0	0.000	
@<TRIPOS>BOND
1 1 2 1
2 1 3 1
3 1 18 1
4 2 7 1
5 3 4 1
6 3 5 1
7 5 6 1
8 5 7 1
9 7 8 1
10 8 9 1
11 8 17 1
12 9 10 2
13 10 11 1
14 11 12 2
15 11 17 1
16 12 13 1
17 12 14 1
18 14 15 2
19 15 16 1
20 16 17 2
21 18 19 1
22 19 20 1
23 20 21 1
24 20 22 2
25 20 23 1
26 23 24 1
27 24 25 2
28 24 26 1
29 24 27 1
30 27 28 1
31 28 29 1
32 28 30 2
33 28 31 1
@<TRIPOS>SUBSTRUCTURE
1	UNK0	1	GROUP	1 ****	UNK
