# created with PyMOL 2.5.0
@<TRIPOS>MOLECULE
cocrystal/docking_cocrystal/1dm2_HMD_LIG.pdb
29 31 1                 
SMALL
USER_CHARGES
@<TRIPOS>ATOM
1	 H06	-10.542	206.123	114.458	 H	1	UNK0	0.000	
2	 H04	-7.845	207.150	112.147	 H	1	UNK0	0.000	
3	 H05	-10.871	205.230	116.340	 H	1	UNK0	0.000	
4	 H01	-16.306	203.722	112.891	 H	1	UNK0	0.000	
5	 H09	-14.777	206.383	112.116	 H	1	UNK0	0.000	
6	 H10	-13.942	205.953	110.573	 H	1	UNK0	0.000	
7	 H07	-15.334	204.174	110.924	 H	1	UNK0	0.000	
8	 H02	-10.012	206.439	113.035	 H	1	UNK0	0.000	
9	 H08	-13.797	203.599	111.687	 H	1	UNK0	0.000	
10	 H03	-7.723	207.645	110.473	 H	1	UNK0	0.000	
11	 Br1	-10.798	204.777	117.381	Br	1	UNK0	0.000	
12	  O1	-15.656	204.007	115.265	O.2	1	UNK0	0.000	
13	  O2	-12.429	206.881	109.345	O.2	1	UNK0	0.000	
14	  N1	-13.042	204.474	115.784	N.2	1	UNK0	0.000	
15	  N2	-15.361	204.065	112.995	N.pl3	1	UNK0	0.000	
16	  N3	-10.233	207.226	109.935	N.2	1	UNK0	0.000	
17	  N4	-10.327	206.602	112.090	N.pl3	1	UNK0	0.000	
18	  N5	-8.276	207.303	111.246	N.pl3	1	UNK0	0.000	
19	  C1	-11.811	204.984	115.845	C.3	1	UNK0	0.000	
20	  C2	-11.479	205.612	114.681	C.2	1	UNK0	0.000	
21	  C3	-12.597	205.468	113.817	C.2	1	UNK0	0.000	
22	  C4	-13.569	204.741	114.570	C.2	1	UNK0	0.000	
23	  C5	-14.927	204.248	114.295	C.2	1	UNK0	0.000	
24	  C6	-14.626	204.305	111.742	C.3	1	UNK0	0.000	
25	  C7	-14.069	205.713	111.629	C.3	1	UNK0	0.000	
26	  C8	-12.724	205.881	112.331	C.2	1	UNK0	0.000	
27	  C9	-11.633	206.392	111.622	C.2	1	UNK0	0.000	
28	 C10	-11.511	206.852	110.180	C.2	1	UNK0	0.000	
29	 C11	-9.561	207.055	111.080	C.2	1	UNK0	0.000	
@<TRIPOS>BOND
1 11 19 1
2 12 23 2
3 13 28 2
4 14 19 1
5 14 22 2
6 4 15 1
7 15 23 1
8 15 24 1
9 16 28 1
10 16 29 2
11 8 17 1
12 17 27 1
13 17 29 1
14 2 18 1
15 10 18 1
16 18 29 1
17 3 19 1
18 19 20 1
19 1 20 1
20 20 21 2
21 21 22 1
22 21 26 1
23 22 23 1
24 7 24 1
25 9 24 1
26 24 25 1
27 5 25 1
28 6 25 1
29 25 26 1
30 26 27 2
31 27 28 1
@<TRIPOS>SUBSTRUCTURE
1	UNK0	1	GROUP	1 ****	UNK
