# created with PyMOL 2.5.0
@<TRIPOS>MOLECULE
cocrystal/docking_cocrystal/1ckp_PVB_LIG.pdb
28 30 1                 
SMALL
USER_CHARGES
@<TRIPOS>ATOM
1	 H06	-14.652	202.649	113.623	 H	1	UNK0	0.000	
2	 H07	-13.245	204.447	111.980	 H	1	UNK0	0.000	
3	 H08	-13.707	206.119	110.209	 H	1	UNK0	0.000	
4	 H01	-12.809	207.997	118.648	 H	1	UNK0	0.000	
5	 H10	-17.244	204.942	113.499	 H	1	UNK0	0.000	
6	 H05	-12.561	207.771	116.099	 H	1	UNK0	0.000	
7	 H03	-13.186	206.486	119.508	 H	1	UNK0	0.000	
8	 H02	-14.487	207.635	119.115	 H	1	UNK0	0.000	
9	 H09	-15.936	207.215	110.074	 H	1	UNK0	0.000	
10	 H04	-16.421	202.902	118.113	 H	1	UNK0	0.000	
11	  N1	-15.729	203.209	116.133	N.2	1	UNK0	0.000	
12	  C1	-13.547	207.205	118.772	C.3	1	UNK0	0.000	
13	  N2	-13.764	206.509	117.453	N.pl3	1	UNK0	0.000	
14	  C2	-14.520	205.351	117.171	C.2	1	UNK0	0.000	
15	  N3	-15.244	204.595	118.049	N.2	1	UNK0	0.000	
16	  C3	-15.821	203.551	117.475	C.2	1	UNK0	0.000	
17	  C4	-14.998	203.964	115.228	C.2	1	UNK0	0.000	
18	  C5	-14.335	205.139	115.787	C.2	1	UNK0	0.000	
19	  N4	-13.545	206.090	115.222	N.2	1	UNK0	0.000	
20	  C6	-13.204	206.900	116.221	C.2	1	UNK0	0.000	
21	  N5	-14.913	203.590	113.880	N.pl3	1	UNK0	0.000	
22	  C7	-15.209	204.585	112.856	C.2	1	UNK0	0.000	
23	  C8	-14.225	204.922	111.926	C.2	1	UNK0	0.000	
24	  C9	-14.484	205.864	110.930	C.2	1	UNK0	0.000	
25	 C10	-15.735	206.479	110.853	C.2	1	UNK0	0.000	
26	 C11	-16.731	206.147	111.779	C.2	1	UNK0	0.000	
27	 Cl1	-18.275	206.897	111.690	Cl	1	UNK0	0.000	
28	 C12	-16.468	205.201	112.778	C.2	1	UNK0	0.000	
@<TRIPOS>BOND
1 11 16 1
2 11 17 2
3 4 12 1
4 7 12 1
5 8 12 1
6 12 13 1
7 13 14 1
8 13 20 1
9 14 15 1
10 14 18 2
11 15 16 2
12 10 16 1
13 17 18 1
14 17 21 1
15 18 19 1
16 19 20 2
17 6 20 1
18 1 21 1
19 21 22 1
20 22 23 2
21 22 28 1
22 2 23 1
23 23 24 1
24 3 24 1
25 24 25 2
26 9 25 1
27 25 26 1
28 26 27 1
29 26 28 2
30 5 28 1
@<TRIPOS>SUBSTRUCTURE
1	UNK0	1	GROUP	1 ****	UNK
