# created with PyMOL 2.5.0
@<TRIPOS>MOLECULE
cocrystal/docking_cocrystal/1e9h_INR_LIG.pdb
24 27 1                 
SMALL
USER_CHARGES
@<TRIPOS>ATOM
1	  C1	-11.153	206.583	111.771	C.3	1	UNK0	0.000	
2	  C2	-10.636	206.808	110.401	C.2	1	UNK0	0.000	
3	  C3	-9.919	206.818	112.641	C.2	1	UNK0	0.000	
4	  O1	-11.319	206.715	109.381	O.2	1	UNK0	0.000	
5	  N1	-9.376	207.115	110.456	N.pl3	1	UNK0	0.000	
6	  C4	-8.912	207.130	111.709	C.2	1	UNK0	0.000	
7	  C5	-9.611	206.788	114.032	C.2	1	UNK0	0.000	
8	  C6	-8.269	207.073	114.445	C.2	1	UNK0	0.000	
9	  C7	-7.266	207.381	113.489	C.2	1	UNK0	0.000	
10	  C8	-7.582	207.417	112.104	C.2	1	UNK0	0.000	
11	  C9	-14.648	206.249	111.777	C.2	1	UNK0	0.000	
12	 C10	-14.511	205.373	112.867	C.2	1	UNK0	0.000	
13	 C11	-15.925	206.564	111.239	C.2	1	UNK0	0.000	
14	  N2	-13.453	206.701	111.377	N.2	1	UNK0	0.000	
15	 C12	-15.632	204.750	113.483	C.2	1	UNK0	0.000	
16	 C13	-13.029	205.339	113.091	C.2	1	UNK0	0.000	
17	 C14	-16.922	205.054	112.954	C.2	1	UNK0	0.000	
18	 C15	-17.067	205.952	111.843	C.2	1	UNK0	0.000	
19	  O2	-12.479	204.684	113.953	O.2	1	UNK0	0.000	
20	 C16	-12.436	206.222	112.065	C.2	1	UNK0	0.000	
21	  S1	-7.922	207.020	116.184	S.3	1	UNK0	0.000	
22	  O3	-8.911	206.057	116.733	O.3	1	UNK0	0.000	
23	  O4	-8.161	208.329	116.753	O.3	1	UNK0	0.000	
24	  O5	-6.615	206.412	116.329	O.3	1	UNK0	0.000	
@<TRIPOS>BOND
1 1 2 1
2 1 3 1
3 1 20 1
4 2 4 2
5 2 5 1
6 3 6 2
7 3 7 1
8 5 6 1
9 6 10 1
10 7 8 2
11 8 9 1
12 8 21 1
13 9 10 2
14 11 12 1
15 11 13 2
16 11 14 1
17 12 15 2
18 12 16 1
19 13 18 1
20 14 20 2
21 15 17 1
22 16 19 2
23 16 20 1
24 17 18 2
25 21 22 1
26 21 23 1
27 21 24 1
@<TRIPOS>SUBSTRUCTURE
1	UNK0	1	GROUP	1 ****	UNK
