# created with PyMOL 2.5.0
@<TRIPOS>MOLECULE
cocrystal/docking_cocrystal/1fin_ATP_LIG.pdb
47 49 1                 
SMALL
USER_CHARGES
@<TRIPOS>ATOM
1	 H06	-16.138	205.650	116.432	 H	1	UNK0	0.000	
2	 H03	-14.256	202.908	119.653	 H	1	UNK0	0.000	
3	 H07	-12.718	204.650	115.049	 H	1	UNK0	0.000	
4	 H08	-14.931	205.965	109.429	 H	1	UNK0	0.000	
5	 H13	-16.728	206.046	120.267	 H	1	UNK0	0.000	
6	 H09	-13.551	205.451	110.373	 H	1	UNK0	0.000	
7	 H14	-18.057	203.814	121.953	 H	1	UNK0	0.000	
8	 H11	-13.233	206.504	119.569	 H	1	UNK0	0.000	
9	 H02	-13.028	203.537	117.608	 H	1	UNK0	0.000	
10	 H12	-12.630	204.768	119.741	 H	1	UNK0	0.000	
11	 H01	-15.260	205.175	119.037	 H	1	UNK0	0.000	
12	 H15	-18.406	200.541	117.160	 H	1	UNK0	0.000	
13	 H10	-18.288	206.612	112.443	 H	1	UNK0	0.000	
14	 H16	-17.137	198.820	119.899	 H	1	UNK0	0.000	
15	 H05	-16.555	203.184	117.695	 H	1	UNK0	0.000	
16	 H04	-14.556	203.131	115.839	 H	1	UNK0	0.000	
17	  C1	-14.327	205.081	118.480	C.3	1	UNK0	0.000	
18	  O1	-14.354	205.945	117.291	O.3	1	UNK0	0.000	
19	  C2	-14.075	203.706	117.857	C.3	1	UNK0	0.000	
20	  O2	-14.342	202.612	118.744	O.3	1	UNK0	0.000	
21	  C3	-14.998	203.733	116.633	C.3	1	UNK0	0.000	
22	  O3	-16.277	203.130	116.777	O.3	1	UNK0	0.000	
23	  C4	-15.139	205.225	116.329	C.3	1	UNK0	0.000	
24	  N1	-14.759	205.359	114.927	N.pl3	1	UNK0	0.000	
25	  C5	-13.539	204.999	114.423	C.2	1	UNK0	0.000	
26	  N2	-13.444	205.111	113.108	N.2	1	UNK0	0.000	
27	  C6	-14.713	205.529	112.716	C.2	1	UNK0	0.000	
28	  C7	-15.248	205.839	111.443	C.2	1	UNK0	0.000	
29	  N3	-14.516	205.744	110.323	N.pl3	1	UNK0	0.000	
30	  N4	-16.552	206.222	111.398	N.2	1	UNK0	0.000	
31	  C8	-17.252	206.292	112.546	C.2	1	UNK0	0.000	
32	  N5	-16.856	206.023	113.797	N.2	1	UNK0	0.000	
33	  C9	-15.555	205.649	113.824	C.2	1	UNK0	0.000	
34	 C10	-13.479	205.451	119.713	C.3	1	UNK0	0.000	
35	  O4	-14.116	205.403	121.018	O.3	1	UNK0	0.000	
36	  P1	-15.501	204.958	121.472	P.3	1	UNK0	0.000	
37	  O5	-16.497	206.048	121.199	O.3	1	UNK0	0.000	
38	  O6	-15.489	204.386	122.867	O.co2	1	UNK0	0.000	
39	  O7	-15.587	203.352	121.106	O.3	1	UNK0	0.000	
40	  P2	-17.011	202.732	120.573	P.3	1	UNK0	0.000	
41	  O8	-17.281	203.283	119.195	O.co2	1	UNK0	0.000	
42	  O9	-17.935	202.882	121.757	O.3	1	UNK0	0.000	
43	 O10	-16.635	201.234	119.947	O.3	1	UNK0	0.000	
44	  P3	-16.910	200.345	118.548	P.3	1	UNK0	0.000	
45	 O11	-15.596	200.442	117.795	O.co2	1	UNK0	0.000	
46	 O12	-18.112	201.036	117.927	O.3	1	UNK0	0.000	
47	 O13	-17.155	198.898	118.942	O.3	1	UNK0	0.000	
@<TRIPOS>BOND
1 11 17 1
2 17 18 1
3 17 19 1
4 17 34 1
5 18 23 1
6 9 19 1
7 19 20 1
8 19 21 1
9 2 20 1
10 16 21 1
11 21 22 1
12 21 23 1
13 15 22 1
14 1 23 1
15 23 24 1
16 24 25 1
17 24 33 1
18 3 25 1
19 25 26 2
20 26 27 1
21 27 28 2
22 27 33 1
23 28 29 1
24 28 30 1
25 4 29 1
26 6 29 1
27 30 31 2
28 13 31 1
29 31 32 1
30 32 33 2
31 8 34 1
32 10 34 1
33 34 35 1
34 35 36 1
35 36 37 1
36 36 38 2
37 36 39 1
38 5 37 1
39 39 40 1
40 40 41 2
41 40 42 1
42 40 43 1
43 7 42 1
44 43 44 1
45 44 45 2
46 44 46 1
47 44 47 1
48 12 46 1
49 14 47 1
@<TRIPOS>SUBSTRUCTURE
1	UNK0	1	GROUP	1 ****	UNK
