# created with PyMOL 2.5.0
@<TRIPOS>MOLECULE
cocrystal/docking_cocrystal/1e9h_INR_LIG.pdb
24 27 1                 
SMALL
USER_CHARGES
@<TRIPOS>ATOM
1	  C1	-11.464	206.570	111.561	C.3	1	UNK0	0.000	
2	  C2	-11.611	206.767	110.100	C.2	1	UNK0	0.000	
3	  C3	-12.878	206.187	111.995	C.2	1	UNK0	0.000	
4	  O1	-10.690	207.092	109.350	O.2	1	UNK0	0.000	
5	  N1	-12.842	206.542	109.752	N.pl3	1	UNK0	0.000	
6	  C4	-13.611	206.212	110.793	C.2	1	UNK0	0.000	
7	  C5	-13.533	205.852	113.216	C.2	1	UNK0	0.000	
8	  C6	-14.934	205.554	113.185	C.2	1	UNK0	0.000	
9	  C7	-15.656	205.589	111.963	C.2	1	UNK0	0.000	
10	  C8	-14.996	205.916	110.748	C.2	1	UNK0	0.000	
11	  C9	-8.114	207.143	112.440	C.2	1	UNK0	0.000	
12	 C10	-8.497	207.005	113.785	C.2	1	UNK0	0.000	
13	 C11	-6.766	207.412	112.080	C.2	1	UNK0	0.000	
14	  N2	-9.165	206.980	111.627	N.2	1	UNK0	0.000	
15	 C12	-7.567	207.134	114.854	C.2	1	UNK0	0.000	
16	 C13	-9.968	206.730	113.693	C.2	1	UNK0	0.000	
17	 C14	-6.209	207.406	114.511	C.2	1	UNK0	0.000	
18	 C15	-5.812	207.545	113.138	C.2	1	UNK0	0.000	
19	  O2	-10.695	206.552	114.648	O.2	1	UNK0	0.000	
20	 C16	-10.302	206.749	112.254	C.2	1	UNK0	0.000	
21	  S1	-15.715	205.148	114.725	S.3	1	UNK0	0.000	
22	  O3	-17.170	205.282	114.452	O.3	1	UNK0	0.000	
23	  O4	-15.324	206.120	115.723	O.3	1	UNK0	0.000	
24	  O5	-15.458	203.743	114.965	O.3	1	UNK0	0.000	
@<TRIPOS>BOND
1 1 2 1
2 1 3 1
3 1 20 1
4 2 4 2
5 2 5 1
6 3 6 2
7 3 7 1
8 5 6 1
9 6 10 1
10 7 8 2
11 8 9 1
12 8 21 1
13 9 10 2
14 11 12 1
15 11 13 2
16 11 14 1
17 12 15 2
18 12 16 1
19 13 18 1
20 14 20 2
21 15 17 1
22 16 19 2
23 16 20 1
24 17 18 2
25 21 22 1
26 21 23 1
27 21 24 1
@<TRIPOS>SUBSTRUCTURE
1	UNK0	1	GROUP	1 ****	UNK
