# created with PyMOL 2.5.0
@<TRIPOS>MOLECULE
cocrystal/docking_cocrystal/1fin_ATP_LIG.pdb
31 33 1                 
SMALL
USER_CHARGES
@<TRIPOS>ATOM
1	  C1	-14.327	205.081	118.480	C.3	1	UNK0	0.000	
2	  O1	-14.354	205.945	117.291	O.3	1	UNK0	0.000	
3	  C2	-14.075	203.706	117.857	C.3	1	UNK0	0.000	
4	  O2	-14.342	202.612	118.744	O.3	1	UNK0	0.000	
5	  C3	-14.998	203.733	116.633	C.3	1	UNK0	0.000	
6	  O3	-16.277	203.130	116.777	O.3	1	UNK0	0.000	
7	  C4	-15.139	205.225	116.329	C.3	1	UNK0	0.000	
8	  N1	-14.759	205.359	114.927	N.pl3	1	UNK0	0.000	
9	  C5	-13.539	204.999	114.423	C.2	1	UNK0	0.000	
10	  N2	-13.444	205.111	113.108	N.2	1	UNK0	0.000	
11	  C6	-14.713	205.529	112.716	C.2	1	UNK0	0.000	
12	  C7	-15.248	205.839	111.443	C.2	1	UNK0	0.000	
13	  N3	-14.516	205.744	110.323	N.pl3	1	UNK0	0.000	
14	  N4	-16.552	206.222	111.398	N.2	1	UNK0	0.000	
15	  C8	-17.252	206.292	112.546	C.2	1	UNK0	0.000	
16	  N5	-16.856	206.023	113.797	N.2	1	UNK0	0.000	
17	  C9	-15.555	205.649	113.824	C.2	1	UNK0	0.000	
18	 C10	-13.479	205.451	119.713	C.3	1	UNK0	0.000	
19	  O4	-14.116	205.403	121.018	O.3	1	UNK0	0.000	
20	  P1	-15.501	204.958	121.472	P.3	1	UNK0	0.000	
21	  O5	-16.497	206.048	121.199	O.co2	1	UNK0	0.000	
22	  O6	-15.489	204.386	122.867	O.co2	1	UNK0	0.000	
23	  O7	-15.587	203.352	121.106	O.3	1	UNK0	0.000	
24	  P2	-17.011	202.732	120.573	P.3	1	UNK0	0.000	
25	  O8	-17.281	203.283	119.195	O.co2	1	UNK0	0.000	
26	  O9	-17.935	202.882	121.757	O.co2	1	UNK0	0.000	
27	 O10	-16.635	201.234	119.947	O.3	1	UNK0	0.000	
28	  P3	-16.910	200.345	118.548	P.3	1	UNK0	0.000	
29	 O11	-15.596	200.442	117.795	O.co2	1	UNK0	0.000	
30	 O12	-18.112	201.036	117.927	O.co2	1	UNK0	0.000	
31	 O13	-17.155	198.898	118.942	O.co2	1	UNK0	0.000	
@<TRIPOS>BOND
1 1 2 1
2 1 3 1
3 1 18 1
4 2 7 1
5 3 4 1
6 3 5 1
7 5 6 1
8 5 7 1
9 7 8 1
10 8 9 1
11 8 17 1
12 9 10 2
13 10 11 1
14 11 12 2
15 11 17 1
16 12 13 1
17 12 14 1
18 14 15 2
19 15 16 1
20 16 17 2
21 18 19 1
22 19 20 1
23 20 21 1
24 20 22 2
25 20 23 1
26 23 24 1
27 24 25 2
28 24 26 1
29 24 27 1
30 27 28 1
31 28 29 2
32 28 30 1
33 28 31 1
@<TRIPOS>SUBSTRUCTURE
1	UNK0	1	GROUP	1 ****	UNK
