# created with PyMOL 2.5.0
@<TRIPOS>MOLECULE
cocrystal/docking_cocrystal/1e1v_CMG_LIG.pdb
35 37 1                 
SMALL
USER_CHARGES
@<TRIPOS>ATOM
1	 H01	-14.427	206.439	117.157	 H	1	UNK0	0.000	
2	 H03	-15.261	208.852	117.186	 H	1	UNK0	0.000	
3	 H02	-16.853	205.417	111.463	 H	1	UNK0	0.000	
4	 H08	-15.629	201.233	119.143	 H	1	UNK0	0.000	
5	 H07	-17.505	202.105	116.744	 H	1	UNK0	0.000	
6	 H06	-14.971	203.142	118.185	 H	1	UNK0	0.000	
7	 H04	-14.323	207.867	118.119	 H	1	UNK0	0.000	
8	 H09	-15.447	200.614	117.506	 H	1	UNK0	0.000	
9	 H16	-17.906	203.551	119.067	 H	1	UNK0	0.000	
10	 H11	-18.047	199.945	117.793	 H	1	UNK0	0.000	
11	 H14	-19.391	201.845	120.068	 H	1	UNK0	0.000	
12	 H13	-18.207	199.573	120.469	 H	1	UNK0	0.000	
13	 H12	-16.894	200.604	120.648	 H	1	UNK0	0.000	
14	 H15	-19.175	201.208	118.506	 H	1	UNK0	0.000	
15	 H10	-16.876	198.875	118.430	 H	1	UNK0	0.000	
16	 H05	-16.225	204.320	118.124	 H	1	UNK0	0.000	
17	 H17	-16.698	202.478	119.797	 H	1	UNK0	0.000	
18	  N1	-15.037	205.823	116.762	N.2	1	UNK0	0.000	
19	  C1	-14.898	207.100	116.429	C.3	1	UNK0	0.000	
20	  N2	-15.240	207.486	115.186	N.2	1	UNK0	0.000	
21	  C2	-15.724	206.628	114.296	C.2	1	UNK0	0.000	
22	  C3	-15.834	205.318	114.643	C.2	1	UNK0	0.000	
23	  C4	-15.469	204.887	115.916	C.2	1	UNK0	0.000	
24	  N3	-16.335	204.773	113.543	N.2	1	UNK0	0.000	
25	  C5	-16.513	205.626	112.478	C.2	1	UNK0	0.000	
26	  N4	-16.147	206.798	113.048	N.2	1	UNK0	0.000	
27	  N5	-14.518	208.168	117.175	N.3	1	UNK0	0.000	
28	  O1	-15.633	203.535	116.211	O.3	1	UNK0	0.000	
29	  C6	-15.880	203.405	117.644	C.3	1	UNK0	0.000	
30	  C7	-16.932	202.223	117.664	C.3	1	UNK0	0.000	
31	  C8	-16.172	200.977	118.234	C.3	1	UNK0	0.000	
32	  C9	-17.226	199.904	118.509	C.3	1	UNK0	0.000	
33	 C10	-17.667	200.348	119.924	C.3	1	UNK0	0.000	
34	 C11	-18.608	201.507	119.388	C.3	1	UNK0	0.000	
35	 C12	-17.493	202.542	119.054	C.3	1	UNK0	0.000	
@<TRIPOS>BOND
1 18 19 1
2 18 23 2
3 1 19 1
4 19 20 1
5 19 27 1
6 20 21 2
7 21 22 1
8 21 26 1
9 22 23 1
10 22 24 2
11 23 28 1
12 24 25 1
13 3 25 1
14 25 26 2
15 2 27 1
16 7 27 1
17 28 29 1
18 6 29 1
19 16 29 1
20 29 30 1
21 5 30 1
22 30 31 1
23 30 35 1
24 4 31 1
25 8 31 1
26 31 32 1
27 10 32 1
28 15 32 1
29 32 33 1
30 12 33 1
31 13 33 1
32 33 34 1
33 11 34 1
34 14 34 1
35 34 35 1
36 9 35 1
37 17 35 1
@<TRIPOS>SUBSTRUCTURE
1	UNK0	1	GROUP	1 ****	UNK
