# created with PyMOL 2.5.0
@<TRIPOS>MOLECULE
cocrystal/docking_cocrystal/1b39_ATP_LIG.pdb
31 33 1                 
SMALL
USER_CHARGES
@<TRIPOS>ATOM
1	  C1	-8.137	207.611	115.001	C.3	1	UNK0	0.000	
2	  O1	-8.764	206.615	114.174	O.3	1	UNK0	0.000	
3	  C2	-8.153	208.935	114.222	C.3	1	UNK0	0.000	
4	  O2	-6.888	208.922	113.482	O.3	1	UNK0	0.000	
5	  C3	-9.320	208.633	113.210	C.3	1	UNK0	0.000	
6	  O3	-9.111	209.482	112.054	O.3	1	UNK0	0.000	
7	  C4	-9.111	207.118	112.917	C.3	1	UNK0	0.000	
8	  N1	-10.351	206.375	112.628	N.pl3	1	UNK0	0.000	
9	  C5	-11.081	205.736	113.584	C.2	1	UNK0	0.000	
10	  N2	-12.299	205.474	113.319	N.2	1	UNK0	0.000	
11	  C6	-12.451	205.910	112.089	C.2	1	UNK0	0.000	
12	  C7	-13.576	205.885	111.294	C.2	1	UNK0	0.000	
13	  N3	-14.775	205.410	111.601	N.pl3	1	UNK0	0.000	
14	  N4	-13.452	206.437	110.066	N.2	1	UNK0	0.000	
15	  C8	-12.256	206.980	109.679	C.2	1	UNK0	0.000	
16	  N5	-11.127	207.046	110.372	N.2	1	UNK0	0.000	
17	  C9	-11.291	206.481	111.596	C.2	1	UNK0	0.000	
18	 C10	-8.935	207.757	116.297	C.3	1	UNK0	0.000	
19	  O4	-10.149	206.953	116.146	O.3	1	UNK0	0.000	
20	  P1	-11.354	207.544	116.968	P.3	1	UNK0	0.000	
21	  O5	-11.086	208.969	117.387	O.co2	1	UNK0	0.000	
22	  O6	-11.641	206.784	118.205	O.co2	1	UNK0	0.000	
23	  O7	-12.586	207.607	115.914	O.3	1	UNK0	0.000	
24	  P2	-14.203	207.673	116.043	P.3	1	UNK0	0.000	
25	  O8	-14.763	208.453	114.954	O.co2	1	UNK0	0.000	
26	  O9	-14.495	208.300	117.356	O.co2	1	UNK0	0.000	
27	 O10	-14.569	206.126	116.077	O.3	1	UNK0	0.000	
28	  P3	-15.432	205.338	115.009	P.3	1	UNK0	0.000	
29	 O11	-14.655	204.377	114.215	O.co2	1	UNK0	0.000	
30	 O12	-16.556	204.669	115.709	O.co2	1	UNK0	0.000	
31	 O13	-16.080	206.326	114.090	O.co2	1	UNK0	0.000	
@<TRIPOS>BOND
1 1 2 1
2 1 3 1
3 1 18 1
4 2 7 1
5 3 4 1
6 3 5 1
7 5 6 1
8 5 7 1
9 7 8 1
10 8 9 1
11 8 17 1
12 9 10 2
13 10 11 1
14 11 12 2
15 11 17 1
16 12 13 1
17 12 14 1
18 14 15 2
19 15 16 1
20 16 17 2
21 18 19 1
22 19 20 1
23 20 21 1
24 20 22 2
25 20 23 1
26 23 24 1
27 24 25 2
28 24 26 1
29 24 27 1
30 27 28 1
31 28 29 1
32 28 30 2
33 28 31 1
@<TRIPOS>SUBSTRUCTURE
1	UNK0	1	GROUP	1 ****	UNK
