# created with PyMOL 2.5.0
@<TRIPOS>MOLECULE
cocrystal/docking_cocrystal/1e1v_CMG_LIG.pdb
18 20 1                 
SMALL
USER_CHARGES
@<TRIPOS>ATOM
1	  N1	-11.294	205.121	113.902	N.2	1	UNK0	0.000	
2	  C1	-10.443	205.131	114.920	C.3	1	UNK0	0.000	
3	  N2	-9.492	206.084	114.960	N.2	1	UNK0	0.000	
4	  C2	-9.397	207.016	114.019	C.2	1	UNK0	0.000	
5	  C3	-10.260	206.975	112.968	C.2	1	UNK0	0.000	
6	  C4	-11.240	205.989	112.891	C.2	1	UNK0	0.000	
7	  N3	-9.881	208.023	112.249	N.2	1	UNK0	0.000	
8	  C5	-8.795	208.720	112.728	C.2	1	UNK0	0.000	
9	  N4	-8.572	208.048	113.882	N.2	1	UNK0	0.000	
10	  N5	-10.391	204.356	116.032	N.3	1	UNK0	0.000	
11	  O1	-12.106	206.024	111.800	O.3	1	UNK0	0.000	
12	  C6	-13.194	205.085	112.048	C.3	1	UNK0	0.000	
13	  C7	-14.365	206.074	112.444	C.3	1	UNK0	0.000	
14	  C8	-15.443	205.943	111.316	C.3	1	UNK0	0.000	
15	  C9	-16.688	206.683	111.806	C.3	1	UNK0	0.000	
16	 C10	-17.340	205.549	112.633	C.3	1	UNK0	0.000	
17	 C11	-16.394	205.768	113.888	C.3	1	UNK0	0.000	
18	 C12	-15.125	205.068	113.316	C.3	1	UNK0	0.000	
@<TRIPOS>BOND
1 1 2 1
2 1 6 2
3 2 3 1
4 2 10 1
5 3 4 2
6 4 5 1
7 4 9 1
8 5 6 1
9 5 7 2
10 6 11 1
11 7 8 1
12 8 9 2
13 11 12 1
14 12 13 1
15 13 14 1
16 13 18 1
17 14 15 1
18 15 16 1
19 16 17 1
20 17 18 1
@<TRIPOS>SUBSTRUCTURE
1	UNK0	1	GROUP	1 ****	UNK
