# created with PyMOL 2.5.0
@<TRIPOS>MOLECULE
cocrystal/docking_cocrystal/1ckp_PVB_LIG.pdb
18 20 1                 
SMALL
USER_CHARGES
@<TRIPOS>ATOM
1	  N1	-15.729	203.209	116.133	N.2	1	UNK0	0.000	
2	  C1	-13.547	207.205	118.772	C.3	1	UNK0	0.000	
3	  N2	-13.764	206.509	117.453	N.pl3	1	UNK0	0.000	
4	  C2	-14.520	205.351	117.171	C.2	1	UNK0	0.000	
5	  N3	-15.244	204.595	118.049	N.2	1	UNK0	0.000	
6	  C3	-15.821	203.551	117.475	C.2	1	UNK0	0.000	
7	  C4	-14.998	203.964	115.228	C.2	1	UNK0	0.000	
8	  C5	-14.335	205.139	115.787	C.2	1	UNK0	0.000	
9	  N4	-13.545	206.090	115.222	N.2	1	UNK0	0.000	
10	  C6	-13.204	206.900	116.221	C.2	1	UNK0	0.000	
11	  N5	-14.913	203.590	113.880	N.pl3	1	UNK0	0.000	
12	  C7	-15.209	204.585	112.856	C.2	1	UNK0	0.000	
13	  C8	-14.225	204.922	111.926	C.2	1	UNK0	0.000	
14	  C9	-14.484	205.864	110.930	C.2	1	UNK0	0.000	
15	 C10	-15.735	206.479	110.853	C.2	1	UNK0	0.000	
16	 C11	-16.731	206.147	111.779	C.2	1	UNK0	0.000	
17	 Cl1	-18.275	206.897	111.690	Cl	1	UNK0	0.000	
18	 C12	-16.468	205.201	112.778	C.2	1	UNK0	0.000	
@<TRIPOS>BOND
1 1 6 1
2 1 7 2
3 2 3 1
4 3 4 1
5 3 10 1
6 4 5 1
7 4 8 2
8 5 6 2
9 7 8 1
10 7 11 1
11 8 9 1
12 9 10 2
13 11 12 1
14 12 13 2
15 12 18 1
16 13 14 1
17 14 15 2
18 15 16 1
19 16 17 1
20 16 18 2
@<TRIPOS>SUBSTRUCTURE
1	UNK0	1	GROUP	1 ****	UNK
