# created with PyMOL 2.5.0
@<TRIPOS>MOLECULE
cocrystal/docking_cocrystal/1e1v_CMG_LIG.pdb
35 37 1                 
SMALL
USER_CHARGES
@<TRIPOS>ATOM
1	 H01	-11.047	204.367	114.431	 H	1	UNK0	0.000	
2	 H03	-11.291	203.925	116.184	 H	1	UNK0	0.000	
3	 H02	-8.266	209.572	112.300	 H	1	UNK0	0.000	
4	 H08	-15.666	204.897	111.109	 H	1	UNK0	0.000	
5	 H07	-14.039	207.072	112.738	 H	1	UNK0	0.000	
6	 H06	-13.440	204.511	111.154	 H	1	UNK0	0.000	
7	 H04	-9.689	203.640	115.912	 H	1	UNK0	0.000	
8	 H09	-15.077	206.393	110.393	 H	1	UNK0	0.000	
9	 H16	-14.489	204.727	114.133	 H	1	UNK0	0.000	
10	 H11	-16.435	207.545	112.423	 H	1	UNK0	0.000	
11	 H14	-16.764	205.391	114.841	 H	1	UNK0	0.000	
12	 H13	-18.392	205.727	112.851	 H	1	UNK0	0.000	
13	 H12	-17.389	204.553	112.192	 H	1	UNK0	0.000	
14	 H15	-16.225	206.824	114.101	 H	1	UNK0	0.000	
15	 H10	-17.315	207.110	111.024	 H	1	UNK0	0.000	
16	 H05	-12.972	204.329	112.800	 H	1	UNK0	0.000	
17	 H17	-15.419	204.208	112.716	 H	1	UNK0	0.000	
18	  N1	-11.294	205.121	113.902	N.2	1	UNK0	0.000	
19	  C1	-10.443	205.131	114.920	C.3	1	UNK0	0.000	
20	  N2	-9.492	206.084	114.960	N.2	1	UNK0	0.000	
21	  C2	-9.397	207.016	114.019	C.2	1	UNK0	0.000	
22	  C3	-10.260	206.975	112.968	C.2	1	UNK0	0.000	
23	  C4	-11.240	205.989	112.891	C.2	1	UNK0	0.000	
24	  N3	-9.881	208.023	112.249	N.2	1	UNK0	0.000	
25	  C5	-8.795	208.720	112.728	C.2	1	UNK0	0.000	
26	  N4	-8.572	208.048	113.882	N.2	1	UNK0	0.000	
27	  N5	-10.391	204.356	116.032	N.3	1	UNK0	0.000	
28	  O1	-12.106	206.024	111.800	O.3	1	UNK0	0.000	
29	  C6	-13.194	205.085	112.048	C.3	1	UNK0	0.000	
30	  C7	-14.365	206.074	112.444	C.3	1	UNK0	0.000	
31	  C8	-15.443	205.943	111.316	C.3	1	UNK0	0.000	
32	  C9	-16.688	206.683	111.806	C.3	1	UNK0	0.000	
33	 C10	-17.340	205.549	112.633	C.3	1	UNK0	0.000	
34	 C11	-16.394	205.768	113.888	C.3	1	UNK0	0.000	
35	 C12	-15.125	205.068	113.316	C.3	1	UNK0	0.000	
@<TRIPOS>BOND
1 18 19 1
2 18 23 2
3 1 19 1
4 19 20 1
5 19 27 1
6 20 21 2
7 21 22 1
8 21 26 1
9 22 23 1
10 22 24 2
11 23 28 1
12 24 25 1
13 3 25 1
14 25 26 2
15 2 27 1
16 7 27 1
17 28 29 1
18 6 29 1
19 16 29 1
20 29 30 1
21 5 30 1
22 30 31 1
23 30 35 1
24 4 31 1
25 8 31 1
26 31 32 1
27 10 32 1
28 15 32 1
29 32 33 1
30 12 33 1
31 13 33 1
32 33 34 1
33 11 34 1
34 14 34 1
35 34 35 1
36 9 35 1
37 17 35 1
@<TRIPOS>SUBSTRUCTURE
1	UNK0	1	GROUP	1 ****	UNK
