# created with PyMOL 2.5.0
@<TRIPOS>MOLECULE
cocrystal/docking_cocrystal/1e1x_NW1_LIG.pdb
18 19 1                 
SMALL
USER_CHARGES
@<TRIPOS>ATOM
1	  N1	-8.916	207.111	112.334	N.2	1	UNK0	0.000	
2	  C1	-9.773	207.184	113.388	C.2	1	UNK0	0.000	
3	  C2	-9.526	208.115	114.530	C.2	1	UNK0	0.000	
4	  N2	-10.507	208.061	115.597	N.2	1	UNK0	0.000	
5	  O1	-10.354	208.826	116.564	O.3	1	UNK0	0.000	
6	  C3	-8.417	208.854	114.468	C.2	1	UNK0	0.000	
7	  N3	-8.083	209.686	115.410	N.2	1	UNK0	0.000	
8	  N4	-7.579	208.701	113.270	N.2	1	UNK0	0.000	
9	  C4	-7.773	207.906	112.309	C.2	1	UNK0	0.000	
10	  N5	-6.984	207.774	111.274	N.pl3	1	UNK0	0.000	
11	  O2	-10.885	206.340	113.367	O.3	1	UNK0	0.000	
12	  C5	-11.525	206.204	112.070	C.3	1	UNK0	0.000	
13	  C6	-13.015	206.021	112.371	C.3	1	UNK0	0.000	
14	  C7	-13.864	205.850	111.095	C.3	1	UNK0	0.000	
15	  C8	-15.370	205.786	111.488	C.3	1	UNK0	0.000	
16	  C9	-15.583	204.575	112.460	C.3	1	UNK0	0.000	
17	 C10	-14.805	204.893	113.767	C.3	1	UNK0	0.000	
18	 C11	-13.286	204.885	113.397	C.3	1	UNK0	0.000	
@<TRIPOS>BOND
1 1 2 2
2 1 9 1
3 2 3 1
4 2 11 1
5 3 4 2
6 3 6 1
7 4 5 1
8 6 7 2
9 6 8 1
10 8 9 2
11 9 10 1
12 11 12 1
13 12 13 1
14 13 14 1
15 13 18 1
16 14 15 1
17 15 16 1
18 16 17 1
19 17 18 1
@<TRIPOS>SUBSTRUCTURE
1	UNK0	1	GROUP	1 ****	UNK
