# created with PyMOL 2.5.0
@<TRIPOS>MOLECULE
cocrystal/docking_cocrystal/1fin_ATP_LIG.pdb
47 49 1                 
SMALL
USER_CHARGES
@<TRIPOS>ATOM
1	 H06	-10.136	204.255	114.463	 H	1	UNK0	0.000	
2	 H03	-8.861	207.190	117.515	 H	1	UNK0	0.000	
3	 H07	-13.306	204.352	113.964	 H	1	UNK0	0.000	
4	 H08	-13.304	207.107	108.430	 H	1	UNK0	0.000	
5	 H13	-13.259	207.934	119.644	 H	1	UNK0	0.000	
6	 H09	-14.197	206.138	109.580	 H	1	UNK0	0.000	
7	 H14	-15.235	209.337	116.086	 H	1	UNK0	0.000	
8	 H11	-10.782	206.790	118.589	 H	1	UNK0	0.000	
9	 H02	-11.015	207.718	116.124	 H	1	UNK0	0.000	
10	 H12	-10.703	204.964	118.836	 H	1	UNK0	0.000	
11	 H01	-9.781	205.035	117.117	 H	1	UNK0	0.000	
12	 H15	-15.976	204.174	112.313	 H	1	UNK0	0.000	
13	 H10	-9.263	207.894	110.388	 H	1	UNK0	0.000	
14	 H16	-15.546	207.685	112.608	 H	1	UNK0	0.000	
15	 H05	-8.239	206.767	113.674	 H	1	UNK0	0.000	
16	 H04	-10.127	207.249	113.975	 H	1	UNK0	0.000	
17	  C1	-10.615	205.671	116.821	C.3	1	UNK0	0.000	
18	  O1	-11.429	205.001	115.797	O.3	1	UNK0	0.000	
19	  C2	-10.225	206.967	116.107	C.3	1	UNK0	0.000	
20	  O2	-9.145	207.670	116.733	O.3	1	UNK0	0.000	
21	  C3	-9.887	206.468	114.697	C.3	1	UNK0	0.000	
22	  O3	-8.517	206.221	114.413	O.3	1	UNK0	0.000	
23	  C4	-10.703	205.180	114.572	C.3	1	UNK0	0.000	
24	  N1	-11.486	205.351	113.353	N.pl3	1	UNK0	0.000	
25	  C5	-12.778	204.926	113.202	C.2	1	UNK0	0.000	
26	  N2	-13.330	205.273	112.051	N.2	1	UNK0	0.000	
27	  C6	-12.341	206.024	111.421	C.2	1	UNK0	0.000	
28	  C7	-12.309	206.663	110.158	C.2	1	UNK0	0.000	
29	  N3	-13.356	206.634	109.320	N.pl3	1	UNK0	0.000	
30	  N4	-11.171	207.333	109.834	N.2	1	UNK0	0.000	
31	  C8	-10.149	207.347	110.711	C.2	1	UNK0	0.000	
32	  N5	-10.066	206.786	111.923	N.2	1	UNK0	0.000	
33	  C9	-11.205	206.120	112.228	C.2	1	UNK0	0.000	
34	 C10	-11.115	205.802	118.274	C.3	1	UNK0	0.000	
35	  O4	-12.550	205.813	118.502	O.3	1	UNK0	0.000	
36	  P1	-13.659	206.749	118.039	P.3	1	UNK0	0.000	
37	  O5	-13.525	208.075	118.732	O.3	1	UNK0	0.000	
38	  O6	-15.017	206.095	118.086	O.co2	1	UNK0	0.000	
39	  O7	-13.861	206.428	116.434	O.3	1	UNK0	0.000	
40	  P2	-14.826	207.412	115.541	P.3	1	UNK0	0.000	
41	  O8	-14.145	207.676	114.221	O.co2	1	UNK0	0.000	
42	  O9	-15.255	208.480	116.519	O.3	1	UNK0	0.000	
43	 O10	-15.936	206.404	114.814	O.3	1	UNK0	0.000	
44	  P3	-16.398	205.940	113.266	P.3	1	UNK0	0.000	
45	 O11	-17.872	206.298	113.207	O.co2	1	UNK0	0.000	
46	 O12	-16.046	204.463	113.226	O.3	1	UNK0	0.000	
47	 O13	-15.636	206.793	112.266	O.3	1	UNK0	0.000	
@<TRIPOS>BOND
1 11 17 1
2 17 18 1
3 17 19 1
4 17 34 1
5 18 23 1
6 9 19 1
7 19 20 1
8 19 21 1
9 2 20 1
10 16 21 1
11 21 22 1
12 21 23 1
13 15 22 1
14 1 23 1
15 23 24 1
16 24 25 1
17 24 33 1
18 3 25 1
19 25 26 2
20 26 27 1
21 27 28 2
22 27 33 1
23 28 29 1
24 28 30 1
25 4 29 1
26 6 29 1
27 30 31 2
28 13 31 1
29 31 32 1
30 32 33 2
31 8 34 1
32 10 34 1
33 34 35 1
34 35 36 1
35 36 37 1
36 36 38 2
37 36 39 1
38 5 37 1
39 39 40 1
40 40 41 2
41 40 42 1
42 40 43 1
43 7 42 1
44 43 44 1
45 44 45 2
46 44 46 1
47 44 47 1
48 12 46 1
49 14 47 1
@<TRIPOS>SUBSTRUCTURE
1	UNK0	1	GROUP	1 ****	UNK
