# created with PyMOL 2.5.0
@<TRIPOS>MOLECULE
cocrystal/docking_cocrystal/1e1x_NW1_LIG.pdb
18 19 1                 
SMALL
USER_CHARGES
@<TRIPOS>ATOM
1	  N1	-14.615	204.244	117.909	N.2	1	UNK0	0.000	
2	  C1	-14.858	205.272	117.053	C.2	1	UNK0	0.000	
3	  C2	-14.495	206.678	117.401	C.2	1	UNK0	0.000	
4	  N2	-14.843	207.674	116.405	N.2	1	UNK0	0.000	
5	  O1	-14.551	208.858	116.641	O.3	1	UNK0	0.000	
6	  C3	-13.939	206.873	118.598	C.2	1	UNK0	0.000	
7	  N3	-13.598	208.054	119.023	N.2	1	UNK0	0.000	
8	  N4	-13.709	205.681	119.428	N.2	1	UNK0	0.000	
9	  C4	-14.026	204.492	119.147	C.2	1	UNK0	0.000	
10	  N5	-13.835	203.460	119.928	N.pl3	1	UNK0	0.000	
11	  O2	-15.477	204.961	115.840	O.3	1	UNK0	0.000	
12	  C5	-14.678	204.152	114.936	C.3	1	UNK0	0.000	
13	  C6	-15.116	204.566	113.529	C.3	1	UNK0	0.000	
14	  C7	-16.241	205.620	113.541	C.3	1	UNK0	0.000	
15	  C8	-16.699	205.896	112.078	C.3	1	UNK0	0.000	
16	  C9	-15.468	206.412	111.257	C.3	1	UNK0	0.000	
17	 C10	-14.447	205.243	111.179	C.3	1	UNK0	0.000	
18	 C11	-13.924	205.009	112.635	C.3	1	UNK0	0.000	
@<TRIPOS>BOND
1 1 2 2
2 1 9 1
3 2 3 1
4 2 11 1
5 3 4 2
6 3 6 1
7 4 5 1
8 6 7 2
9 6 8 1
10 8 9 2
11 9 10 1
12 11 12 1
13 12 13 1
14 13 14 1
15 13 18 1
16 14 15 1
17 15 16 1
18 16 17 1
19 17 18 1
@<TRIPOS>SUBSTRUCTURE
1	UNK0	1	GROUP	1 ****	UNK
