# created with PyMOL 2.5.0
@<TRIPOS>MOLECULE
cocrystal/docking_cocrystal/1e1x_NW1_LIG.pdb
35 36 1                 
SMALL
USER_CHARGES
@<TRIPOS>ATOM
1	 H01	-10.032	208.328	117.319	 H	1	UNK0	0.000	
2	 H03	-7.215	207.116	110.543	 H	1	UNK0	0.000	
3	 H02	-8.669	209.787	116.227	 H	1	UNK0	0.000	
4	 H08	-13.579	204.930	110.585	 H	1	UNK0	0.000	
5	 H07	-13.335	206.951	112.840	 H	1	UNK0	0.000	
6	 H06	-11.364	207.098	111.468	 H	1	UNK0	0.000	
7	 H04	-6.144	208.331	111.205	 H	1	UNK0	0.000	
8	 H09	-13.696	206.696	110.429	 H	1	UNK0	0.000	
9	 H16	-12.685	205.044	114.293	 H	1	UNK0	0.000	
10	 H11	-15.660	206.712	111.986	 H	1	UNK0	0.000	
11	 H14	-15.024	204.160	114.543	 H	1	UNK0	0.000	
12	 H13	-16.644	204.450	112.676	 H	1	UNK0	0.000	
13	 H12	-15.222	203.650	112.010	 H	1	UNK0	0.000	
14	 H15	-15.095	205.872	114.148	 H	1	UNK0	0.000	
15	 H10	-15.982	205.659	110.595	 H	1	UNK0	0.000	
16	 H05	-11.120	205.366	111.503	 H	1	UNK0	0.000	
17	 H17	-13.019	203.923	112.959	 H	1	UNK0	0.000	
18	  N1	-8.916	207.111	112.334	N.2	1	UNK0	0.000	
19	  C1	-9.773	207.184	113.388	C.2	1	UNK0	0.000	
20	  C2	-9.526	208.115	114.530	C.2	1	UNK0	0.000	
21	  N2	-10.507	208.061	115.597	N.2	1	UNK0	0.000	
22	  O1	-10.354	208.826	116.564	O.3	1	UNK0	0.000	
23	  C3	-8.417	208.854	114.468	C.2	1	UNK0	0.000	
24	  N3	-8.083	209.686	115.410	N.2	1	UNK0	0.000	
25	  N4	-7.579	208.701	113.270	N.2	1	UNK0	0.000	
26	  C4	-7.773	207.906	112.309	C.2	1	UNK0	0.000	
27	  N5	-6.984	207.774	111.274	N.pl3	1	UNK0	0.000	
28	  O2	-10.885	206.340	113.367	O.3	1	UNK0	0.000	
29	  C5	-11.525	206.204	112.070	C.3	1	UNK0	0.000	
30	  C6	-13.015	206.021	112.371	C.3	1	UNK0	0.000	
31	  C7	-13.864	205.850	111.095	C.3	1	UNK0	0.000	
32	  C8	-15.370	205.786	111.488	C.3	1	UNK0	0.000	
33	  C9	-15.583	204.575	112.460	C.3	1	UNK0	0.000	
34	 C10	-14.805	204.893	113.767	C.3	1	UNK0	0.000	
35	 C11	-13.286	204.885	113.397	C.3	1	UNK0	0.000	
@<TRIPOS>BOND
1 18 19 2
2 18 26 1
3 19 20 1
4 19 28 1
5 20 21 2
6 20 23 1
7 21 22 1
8 1 22 1
9 23 24 2
10 23 25 1
11 3 24 1
12 25 26 2
13 26 27 1
14 2 27 1
15 7 27 1
16 28 29 1
17 6 29 1
18 16 29 1
19 29 30 1
20 5 30 1
21 30 31 1
22 30 35 1
23 4 31 1
24 8 31 1
25 31 32 1
26 10 32 1
27 15 32 1
28 32 33 1
29 12 33 1
30 13 33 1
31 33 34 1
32 11 34 1
33 14 34 1
34 34 35 1
35 9 35 1
36 17 35 1
@<TRIPOS>SUBSTRUCTURE
1	UNK0	1	GROUP	1 ****	UNK
