# created with PyMOL 2.5.0
@<TRIPOS>MOLECULE
cocrystal/docking_cocrystal/1b38_ATP_LIG.pdb
31 33 1                 
SMALL
USER_CHARGES
@<TRIPOS>ATOM
1	  C1	-11.073	204.716	116.535	C.3	1	UNK0	0.000	
2	  O1	-11.062	204.327	115.156	O.3	1	UNK0	0.000	
3	  C2	-10.552	206.157	116.580	C.3	1	UNK0	0.000	
4	  O2	-9.139	206.106	116.854	O.3	1	UNK0	0.000	
5	  C3	-10.754	206.650	115.105	C.3	1	UNK0	0.000	
6	  O3	-9.583	207.456	114.810	O.3	1	UNK0	0.000	
7	  C4	-10.585	205.333	114.317	C.3	1	UNK0	0.000	
8	  N1	-11.416	205.291	113.118	N.pl3	1	UNK0	0.000	
9	  C5	-12.700	204.868	113.149	C.2	1	UNK0	0.000	
10	  N2	-13.401	205.236	112.162	N.2	1	UNK0	0.000	
11	  C6	-12.605	205.951	111.395	C.2	1	UNK0	0.000	
12	  C7	-12.853	206.574	110.168	C.2	1	UNK0	0.000	
13	  N3	-13.975	206.617	109.472	N.pl3	1	UNK0	0.000	
14	  N4	-11.793	207.222	109.636	N.2	1	UNK0	0.000	
15	  C8	-10.591	207.186	110.265	C.2	1	UNK0	0.000	
16	  N5	-10.290	206.652	111.422	N.2	1	UNK0	0.000	
17	  C9	-11.342	206.004	111.938	C.2	1	UNK0	0.000	
18	 C10	-12.505	204.642	117.080	C.3	1	UNK0	0.000	
19	  O4	-12.697	205.949	117.655	O.3	1	UNK0	0.000	
20	  P1	-14.154	206.588	117.668	P.3	1	UNK0	0.000	
21	  O5	-13.985	208.087	117.574	O.co2	1	UNK0	0.000	
22	  O6	-14.901	206.084	118.790	O.co2	1	UNK0	0.000	
23	  O7	-14.785	206.266	116.194	O.3	1	UNK0	0.000	
24	  P2	-15.198	207.356	115.089	P.3	1	UNK0	0.000	
25	  O8	-14.025	207.539	114.209	O.co2	1	UNK0	0.000	
26	  O9	-15.760	208.548	115.709	O.co2	1	UNK0	0.000	
27	 O10	-16.300	206.438	114.396	O.3	1	UNK0	0.000	
28	  P3	-16.591	206.205	112.862	P.3	1	UNK0	0.000	
29	 O11	-16.321	204.833	112.454	O.co2	1	UNK0	0.000	
30	 O12	-17.943	206.717	112.515	O.co2	1	UNK0	0.000	
31	 O13	-15.577	207.055	112.120	O.co2	1	UNK0	0.000	
@<TRIPOS>BOND
1 1 2 1
2 1 3 1
3 1 18 1
4 2 7 1
5 3 4 1
6 3 5 1
7 5 6 1
8 5 7 1
9 7 8 1
10 8 9 1
11 8 17 1
12 9 10 2
13 10 11 1
14 11 12 2
15 11 17 1
16 12 13 1
17 12 14 1
18 14 15 2
19 15 16 1
20 16 17 2
21 18 19 1
22 19 20 1
23 20 21 1
24 20 22 2
25 20 23 1
26 23 24 1
27 24 25 2
28 24 26 1
29 24 27 1
30 27 28 1
31 28 29 1
32 28 30 2
33 28 31 1
@<TRIPOS>SUBSTRUCTURE
1	UNK0	1	GROUP	1 ****	UNK
