# created with PyMOL 2.5.0
@<TRIPOS>MOLECULE
cocrystal/docking_cocrystal/1ckp_PVB_LIG.pdb
18 20 1                 
SMALL
USER_CHARGES
@<TRIPOS>ATOM
1	  N1	-11.332	205.080	113.728	N.2	1	UNK0	0.000	
2	  C1	-7.681	208.769	114.598	C.3	1	UNK0	0.000	
3	  N2	-8.781	208.241	113.713	N.pl3	1	UNK0	0.000	
4	  C2	-9.602	207.107	113.895	C.2	1	UNK0	0.000	
5	  N3	-9.585	206.225	114.938	N.2	1	UNK0	0.000	
6	  C3	-10.465	205.246	114.799	C.2	1	UNK0	0.000	
7	  C4	-11.362	205.965	112.660	C.2	1	UNK0	0.000	
8	  C5	-10.420	207.078	112.745	C.2	1	UNK0	0.000	
9	  N4	-10.164	208.115	111.904	N.2	1	UNK0	0.000	
10	  C6	-9.183	208.800	112.485	C.2	1	UNK0	0.000	
11	  N5	-12.240	205.768	111.585	N.pl3	1	UNK0	0.000	
12	  C7	-13.615	205.372	111.865	C.2	1	UNK0	0.000	
13	  C8	-13.866	204.110	112.404	C.2	1	UNK0	0.000	
14	  C9	-15.172	203.709	112.691	C.2	1	UNK0	0.000	
15	 C10	-16.242	204.570	112.440	C.2	1	UNK0	0.000	
16	 C11	-16.002	205.839	111.901	C.2	1	UNK0	0.000	
17	 Cl1	-17.313	206.906	111.592	Cl	1	UNK0	0.000	
18	 C12	-14.690	206.239	111.615	C.2	1	UNK0	0.000	
@<TRIPOS>BOND
1 1 6 1
2 1 7 2
3 2 3 1
4 3 4 1
5 3 10 1
6 4 5 1
7 4 8 2
8 5 6 2
9 7 8 1
10 7 11 1
11 8 9 1
12 9 10 2
13 11 12 1
14 12 13 2
15 12 18 1
16 13 14 1
17 14 15 2
18 15 16 1
19 16 17 1
20 16 18 2
@<TRIPOS>SUBSTRUCTURE
1	UNK0	1	GROUP	1 ****	UNK
