# created with PyMOL 2.5.0
@<TRIPOS>MOLECULE
cocrystal/docking_cocrystal/1e9h_INR_LIG.pdb
36 39 1                 
SMALL
USER_CHARGES
@<TRIPOS>ATOM
1	 H04	-6.248	207.591	113.819	 H	1	UNK0	0.000	
2	 H01	-12.060	206.415	112.351	 H	1	UNK0	0.000	
3	 H06	-16.029	207.248	110.396	 H	1	UNK0	0.000	
4	 H07	-15.510	204.069	114.325	 H	1	UNK0	0.000	
5	 H09	-18.062	206.169	111.454	 H	1	UNK0	0.000	
6	 H08	-17.807	204.600	113.399	 H	1	UNK0	0.000	
7	 H03	-10.381	206.553	114.767	 H	1	UNK0	0.000	
8	 H10	-9.093	206.273	117.651	 H	1	UNK0	0.000	
9	 H05	-6.819	207.660	111.364	 H	1	UNK0	0.000	
10	 H11	-8.100	208.994	116.063	 H	1	UNK0	0.000	
11	 H02	-8.810	207.319	109.644	 H	1	UNK0	0.000	
12	 H12	-6.316	206.089	115.477	 H	1	UNK0	0.000	
13	  C1	-11.153	206.583	111.771	C.3	1	UNK0	0.000	
14	  C2	-10.636	206.808	110.401	C.2	1	UNK0	0.000	
15	  C3	-9.919	206.818	112.641	C.2	1	UNK0	0.000	
16	  O1	-11.319	206.715	109.381	O.2	1	UNK0	0.000	
17	  N1	-9.376	207.115	110.456	N.pl3	1	UNK0	0.000	
18	  C4	-8.912	207.130	111.709	C.2	1	UNK0	0.000	
19	  C5	-9.611	206.788	114.032	C.2	1	UNK0	0.000	
20	  C6	-8.269	207.073	114.445	C.2	1	UNK0	0.000	
21	  C7	-7.266	207.381	113.489	C.2	1	UNK0	0.000	
22	  C8	-7.582	207.417	112.104	C.2	1	UNK0	0.000	
23	  C9	-14.648	206.249	111.777	C.2	1	UNK0	0.000	
24	 C10	-14.511	205.373	112.867	C.2	1	UNK0	0.000	
25	 C11	-15.925	206.564	111.239	C.2	1	UNK0	0.000	
26	  N2	-13.453	206.701	111.377	N.2	1	UNK0	0.000	
27	 C12	-15.632	204.750	113.483	C.2	1	UNK0	0.000	
28	 C13	-13.029	205.339	113.091	C.2	1	UNK0	0.000	
29	 C14	-16.922	205.054	112.954	C.2	1	UNK0	0.000	
30	 C15	-17.067	205.952	111.843	C.2	1	UNK0	0.000	
31	  O2	-12.479	204.684	113.953	O.2	1	UNK0	0.000	
32	 C16	-12.436	206.222	112.065	C.2	1	UNK0	0.000	
33	  S1	-7.922	207.020	116.184	S.3	1	UNK0	0.000	
34	  O3	-8.911	206.057	116.733	O.3	1	UNK0	0.000	
35	  O4	-8.161	208.329	116.753	O.3	1	UNK0	0.000	
36	  O5	-6.615	206.412	116.329	O.3	1	UNK0	0.000	
@<TRIPOS>BOND
1 2 13 1
2 13 14 1
3 13 15 1
4 13 32 1
5 14 16 2
6 14 17 1
7 15 18 2
8 15 19 1
9 11 17 1
10 17 18 1
11 18 22 1
12 7 19 1
13 19 20 2
14 20 21 1
15 20 33 1
16 1 21 1
17 21 22 2
18 9 22 1
19 23 24 1
20 23 25 2
21 23 26 1
22 24 27 2
23 24 28 1
24 3 25 1
25 25 30 1
26 26 32 2
27 4 27 1
28 27 29 1
29 28 31 2
30 28 32 1
31 6 29 1
32 29 30 2
33 5 30 1
34 33 34 1
35 33 35 1
36 33 36 1
37 8 34 1
38 10 35 1
39 12 36 1
@<TRIPOS>SUBSTRUCTURE
1	UNK0	1	GROUP	1 ****	UNK
