# created with PyMOL 2.5.0
@<TRIPOS>MOLECULE
cocrystal/docking_cocrystal/1fin_ATP_LIG.pdb
31 33 1                 
SMALL
USER_CHARGES
@<TRIPOS>ATOM
1	  C1	-11.081	206.577	114.317	C.3	1	UNK0	0.000	
2	  O1	-12.458	207.027	114.070	O.3	1	UNK0	0.000	
3	  C2	-11.285	205.083	114.580	C.3	1	UNK0	0.000	
4	  O2	-10.156	204.444	115.190	O.3	1	UNK0	0.000	
5	  C3	-12.536	205.081	115.466	C.3	1	UNK0	0.000	
6	  O3	-12.329	205.020	116.871	O.3	1	UNK0	0.000	
7	  C4	-13.244	206.381	115.083	C.3	1	UNK0	0.000	
8	  N1	-14.597	205.975	114.717	N.pl3	1	UNK0	0.000	
9	  C5	-15.503	205.438	115.591	C.2	1	UNK0	0.000	
10	  N2	-16.702	205.236	115.070	N.2	1	UNK0	0.000	
11	  C6	-16.587	205.725	113.771	C.2	1	UNK0	0.000	
12	  C7	-17.516	205.783	112.704	C.2	1	UNK0	0.000	
13	  N3	-18.774	205.335	112.833	N.pl3	1	UNK0	0.000	
14	  N4	-17.084	206.335	111.539	N.2	1	UNK0	0.000	
15	  C8	-15.816	206.783	111.460	C.2	1	UNK0	0.000	
16	  N5	-14.858	206.783	112.394	N.2	1	UNK0	0.000	
17	  C9	-15.303	206.225	113.545	C.2	1	UNK0	0.000	
18	 C10	-9.935	206.964	113.360	C.3	1	UNK0	0.000	
19	  O4	-8.744	207.567	113.933	O.3	1	UNK0	0.000	
20	  P1	-8.327	207.862	115.369	P.3	1	UNK0	0.000	
21	  O5	-8.865	209.201	115.786	O.co2	1	UNK0	0.000	
22	  O6	-6.857	207.622	115.598	O.co2	1	UNK0	0.000	
23	  O7	-8.409	206.415	116.155	O.3	1	UNK0	0.000	
24	  P2	-8.629	206.405	117.782	P.3	1	UNK0	0.000	
25	  O8	-8.330	207.786	118.310	O.co2	1	UNK0	0.000	
26	  O9	-7.936	205.141	118.231	O.co2	1	UNK0	0.000	
27	 O10	-10.265	206.626	118.009	O.3	1	UNK0	0.000	
28	  P3	-11.311	207.807	118.590	P.3	1	UNK0	0.000	
29	 O11	-12.689	207.212	118.358	O.co2	1	UNK0	0.000	
30	 O12	-10.943	209.031	117.770	O.co2	1	UNK0	0.000	
31	 O13	-11.077	207.959	120.083	O.co2	1	UNK0	0.000	
@<TRIPOS>BOND
1 1 2 1
2 1 3 1
3 1 18 1
4 2 7 1
5 3 4 1
6 3 5 1
7 5 6 1
8 5 7 1
9 7 8 1
10 8 9 1
11 8 17 1
12 9 10 2
13 10 11 1
14 11 12 2
15 11 17 1
16 12 13 1
17 12 14 1
18 14 15 2
19 15 16 1
20 16 17 2
21 18 19 1
22 19 20 1
23 20 21 1
24 20 22 2
25 20 23 1
26 23 24 1
27 24 25 2
28 24 26 1
29 24 27 1
30 27 28 1
31 28 29 2
32 28 30 1
33 28 31 1
@<TRIPOS>SUBSTRUCTURE
1	UNK0	1	GROUP	1 ****	UNK
