# created with PyMOL 2.5.0
@<TRIPOS>MOLECULE
cocrystal/docking_cocrystal/1ckp_PVB_LIG.pdb
28 30 1                 
SMALL
USER_CHARGES
@<TRIPOS>ATOM
1	 H06	-13.721	203.758	111.010	 H	1	UNK0	0.000	
2	 H07	-14.248	204.311	113.935	 H	1	UNK0	0.000	
3	 H08	-16.226	204.996	115.265	 H	1	UNK0	0.000	
4	 H01	-7.925	207.693	112.144	 H	1	UNK0	0.000	
5	 H10	-16.024	206.018	110.403	 H	1	UNK0	0.000	
6	 H05	-9.830	206.052	114.521	 H	1	UNK0	0.000	
7	 H03	-8.472	208.149	113.775	 H	1	UNK0	0.000	
8	 H02	-9.049	209.057	112.357	 H	1	UNK0	0.000	
9	 H09	-18.114	206.191	114.172	 H	1	UNK0	0.000	
10	 H04	-11.974	207.859	108.622	 H	1	UNK0	0.000	
11	  N1	-12.849	206.386	109.871	N.2	1	UNK0	0.000	
12	  C1	-8.764	208.072	112.728	C.3	1	UNK0	0.000	
13	  N2	-9.933	207.129	112.598	N.pl3	1	UNK0	0.000	
14	  C2	-10.851	206.992	111.535	C.2	1	UNK0	0.000	
15	  N3	-10.880	207.693	110.363	N.2	1	UNK0	0.000	
16	  C3	-11.889	207.346	109.580	C.2	1	UNK0	0.000	
17	  C4	-12.837	205.666	111.057	C.2	1	UNK0	0.000	
18	  C5	-11.745	205.990	111.972	C.2	1	UNK0	0.000	
19	  N4	-11.419	205.508	113.200	N.2	1	UNK0	0.000	
20	  C6	-10.342	206.196	113.569	C.2	1	UNK0	0.000	
21	  N5	-13.825	204.710	111.330	N.pl3	1	UNK0	0.000	
22	  C7	-15.004	205.116	112.085	C.2	1	UNK0	0.000	
23	  C8	-15.071	204.835	113.450	C.2	1	UNK0	0.000	
24	  C9	-16.184	205.220	114.199	C.2	1	UNK0	0.000	
25	 C10	-17.244	205.892	113.586	C.2	1	UNK0	0.000	
26	 C11	-17.187	206.179	112.218	C.2	1	UNK0	0.000	
27	 Cl1	-18.486	207.008	111.457	Cl	1	UNK0	0.000	
28	 C12	-16.068	205.792	111.469	C.2	1	UNK0	0.000	
@<TRIPOS>BOND
1 11 16 1
2 11 17 2
3 4 12 1
4 7 12 1
5 8 12 1
6 12 13 1
7 13 14 1
8 13 20 1
9 14 15 1
10 14 18 2
11 15 16 2
12 10 16 1
13 17 18 1
14 17 21 1
15 18 19 1
16 19 20 2
17 6 20 1
18 1 21 1
19 21 22 1
20 22 23 2
21 22 28 1
22 2 23 1
23 23 24 1
24 3 24 1
25 24 25 2
26 9 25 1
27 25 26 1
28 26 27 1
29 26 28 2
30 5 28 1
@<TRIPOS>SUBSTRUCTURE
1	UNK0	1	GROUP	1 ****	UNK
