# created with PyMOL 2.5.0
@<TRIPOS>MOLECULE
cocrystal/docking_cocrystal/1fin_ATP_LIG.pdb
47 49 1                 
SMALL
USER_CHARGES
@<TRIPOS>ATOM
1	 H06	-13.336	207.134	115.866	 H	1	UNK0	0.000	
2	 H03	-9.867	203.713	114.640	 H	1	UNK0	0.000	
3	 H07	-15.258	205.196	116.625	 H	1	UNK0	0.000	
4	 H08	-19.414	205.399	112.054	 H	1	UNK0	0.000	
5	 H13	-8.940	209.770	115.017	 H	1	UNK0	0.000	
6	 H09	-19.081	204.935	113.708	 H	1	UNK0	0.000	
7	 H14	-7.758	204.585	117.469	 H	1	UNK0	0.000	
8	 H11	-10.359	207.745	112.729	 H	1	UNK0	0.000	
9	 H02	-11.400	204.502	113.666	 H	1	UNK0	0.000	
10	 H12	-9.623	206.057	112.843	 H	1	UNK0	0.000	
11	 H01	-10.642	207.138	115.142	 H	1	UNK0	0.000	
12	 H15	-10.973	209.812	118.328	 H	1	UNK0	0.000	
13	 H10	-15.530	207.207	110.497	 H	1	UNK0	0.000	
14	 H16	-10.749	207.132	120.443	 H	1	UNK0	0.000	
15	 H05	-11.990	204.154	117.108	 H	1	UNK0	0.000	
16	 H04	-13.100	204.166	115.285	 H	1	UNK0	0.000	
17	  C1	-11.081	206.577	114.317	C.3	1	UNK0	0.000	
18	  O1	-12.458	207.027	114.070	O.3	1	UNK0	0.000	
19	  C2	-11.285	205.083	114.580	C.3	1	UNK0	0.000	
20	  O2	-10.156	204.444	115.190	O.3	1	UNK0	0.000	
21	  C3	-12.536	205.081	115.466	C.3	1	UNK0	0.000	
22	  O3	-12.329	205.020	116.871	O.3	1	UNK0	0.000	
23	  C4	-13.244	206.381	115.083	C.3	1	UNK0	0.000	
24	  N1	-14.597	205.975	114.717	N.pl3	1	UNK0	0.000	
25	  C5	-15.503	205.438	115.591	C.2	1	UNK0	0.000	
26	  N2	-16.702	205.236	115.070	N.2	1	UNK0	0.000	
27	  C6	-16.587	205.725	113.771	C.2	1	UNK0	0.000	
28	  C7	-17.516	205.783	112.704	C.2	1	UNK0	0.000	
29	  N3	-18.774	205.335	112.833	N.pl3	1	UNK0	0.000	
30	  N4	-17.084	206.335	111.539	N.2	1	UNK0	0.000	
31	  C8	-15.816	206.783	111.460	C.2	1	UNK0	0.000	
32	  N5	-14.858	206.783	112.394	N.2	1	UNK0	0.000	
33	  C9	-15.303	206.225	113.545	C.2	1	UNK0	0.000	
34	 C10	-9.935	206.964	113.360	C.3	1	UNK0	0.000	
35	  O4	-8.744	207.567	113.933	O.3	1	UNK0	0.000	
36	  P1	-8.327	207.862	115.369	P.3	1	UNK0	0.000	
37	  O5	-8.865	209.201	115.786	O.3	1	UNK0	0.000	
38	  O6	-6.857	207.622	115.598	O.co2	1	UNK0	0.000	
39	  O7	-8.409	206.415	116.155	O.3	1	UNK0	0.000	
40	  P2	-8.629	206.405	117.782	P.3	1	UNK0	0.000	
41	  O8	-8.330	207.786	118.310	O.co2	1	UNK0	0.000	
42	  O9	-7.936	205.141	118.231	O.3	1	UNK0	0.000	
43	 O10	-10.265	206.626	118.009	O.3	1	UNK0	0.000	
44	  P3	-11.311	207.807	118.590	P.3	1	UNK0	0.000	
45	 O11	-12.689	207.212	118.358	O.co2	1	UNK0	0.000	
46	 O12	-10.943	209.031	117.770	O.3	1	UNK0	0.000	
47	 O13	-11.077	207.959	120.083	O.3	1	UNK0	0.000	
@<TRIPOS>BOND
1 11 17 1
2 17 18 1
3 17 19 1
4 17 34 1
5 18 23 1
6 9 19 1
7 19 20 1
8 19 21 1
9 2 20 1
10 16 21 1
11 21 22 1
12 21 23 1
13 15 22 1
14 1 23 1
15 23 24 1
16 24 25 1
17 24 33 1
18 3 25 1
19 25 26 2
20 26 27 1
21 27 28 2
22 27 33 1
23 28 29 1
24 28 30 1
25 4 29 1
26 6 29 1
27 30 31 2
28 13 31 1
29 31 32 1
30 32 33 2
31 8 34 1
32 10 34 1
33 34 35 1
34 35 36 1
35 36 37 1
36 36 38 2
37 36 39 1
38 5 37 1
39 39 40 1
40 40 41 2
41 40 42 1
42 40 43 1
43 7 42 1
44 43 44 1
45 44 45 2
46 44 46 1
47 44 47 1
48 12 46 1
49 14 47 1
@<TRIPOS>SUBSTRUCTURE
1	UNK0	1	GROUP	1 ****	UNK
