# created with PyMOL 2.5.0
@<TRIPOS>MOLECULE
cocrystal/docking_cocrystal/1aq1_STU_LIG.pdb
59 66 1                 
SMALL
USER_CHARGES
@<TRIPOS>ATOM
1	 H15	-7.344	207.679	119.796	 H	1	UNK0	0.000	
2	 H21	-14.203	205.690	121.141	 H	1	UNK0	0.000	
3	 H18	-14.528	207.920	119.370	 H	1	UNK0	0.000	
4	 H24	-14.985	207.639	115.148	 H	1	UNK0	0.000	
5	 H09	-15.675	204.094	114.436	 H	1	UNK0	0.000	
6	 H05	-15.353	206.082	116.961	 H	1	UNK0	0.000	
7	 H20	-15.588	206.742	121.520	 H	1	UNK0	0.000	
8	 H07	-13.934	202.876	116.082	 H	1	UNK0	0.000	
9	 H06	-15.356	203.945	116.048	 H	1	UNK0	0.000	
10	 H01	-10.909	204.913	118.628	 H	1	UNK0	0.000	
11	 H04	-14.136	204.962	119.013	 H	1	UNK0	0.000	
12	 H03	-12.185	206.142	119.947	 H	1	UNK0	0.000	
13	 H14	-9.562	206.579	119.591	 H	1	UNK0	0.000	
14	 H02	-12.301	207.389	118.680	 H	1	UNK0	0.000	
15	 H19	-13.946	207.425	121.444	 H	1	UNK0	0.000	
16	 H08	-14.640	203.468	117.605	 H	1	UNK0	0.000	
17	 H23	-14.251	209.120	115.811	 H	1	UNK0	0.000	
18	 H10	-16.435	203.917	112.124	 H	1	UNK0	0.000	
19	 H13	-10.916	206.808	110.545	 H	1	UNK0	0.000	
20	 H12	-12.848	205.846	110.762	 H	1	UNK0	0.000	
21	 H11	-15.025	204.812	110.231	 H	1	UNK0	0.000	
22	 H22	-15.560	208.302	116.696	 H	1	UNK0	0.000	
23	 H17	-7.101	208.163	115.541	 H	1	UNK0	0.000	
24	 H16	-6.152	208.485	117.763	 H	1	UNK0	0.000	
25	  O1	-12.355	204.536	117.232	O.3	1	UNK0	0.000	
26	  C1	-11.581	205.467	117.973	C.3	1	UNK0	0.000	
27	  C2	-12.460	206.335	118.910	C.3	1	UNK0	0.000	
28	  C3	-13.936	205.987	118.701	C.3	1	UNK0	0.000	
29	  C4	-14.288	206.115	117.190	C.3	1	UNK0	0.000	
30	  C5	-13.513	204.932	116.518	C.3	1	UNK0	0.000	
31	  C6	-14.425	203.720	116.567	C.3	1	UNK0	0.000	
32	  N1	-13.134	205.235	115.111	N.pl3	1	UNK0	0.000	
33	  C7	-11.883	205.857	114.862	C.2	1	UNK0	0.000	
34	  C8	-10.894	206.264	115.664	C.2	1	UNK0	0.000	
35	  C9	-9.719	206.908	115.167	C.2	1	UNK0	0.000	
36	 C10	-9.683	207.059	113.703	C.2	1	UNK0	0.000	
37	 C11	-10.653	206.658	112.924	C.2	1	UNK0	0.000	
38	 C12	-11.825	206.045	113.427	C.2	1	UNK0	0.000	
39	 C13	-13.007	205.516	112.861	C.2	1	UNK0	0.000	
40	 C14	-13.833	205.016	113.915	C.2	1	UNK0	0.000	
41	 C15	-15.044	204.466	113.629	C.2	1	UNK0	0.000	
42	 C16	-15.471	204.378	112.338	C.2	1	UNK0	0.000	
43	 C17	-14.679	204.877	111.262	C.2	1	UNK0	0.000	
44	 C18	-13.464	205.444	111.567	C.2	1	UNK0	0.000	
45	 C19	-10.340	206.988	111.453	C.2	1	UNK0	0.000	
46	  N2	-9.046	207.610	111.642	N.2	1	UNK0	0.000	
47	 C20	-8.595	207.706	112.902	C.2	1	UNK0	0.000	
48	  O2	-7.551	208.191	113.290	O.2	1	UNK0	0.000	
49	 C21	-8.898	207.254	116.257	C.2	1	UNK0	0.000	
50	 C22	-9.578	206.815	117.430	C.2	1	UNK0	0.000	
51	 C23	-9.033	206.943	118.711	C.2	1	UNK0	0.000	
52	 C24	-7.800	207.547	118.815	C.2	1	UNK0	0.000	
53	 C25	-7.121	207.998	117.659	C.2	1	UNK0	0.000	
54	 C26	-7.659	207.833	116.417	C.2	1	UNK0	0.000	
55	  N3	-10.760	206.269	117.072	N.pl3	1	UNK0	0.000	
56	  N4	-14.808	206.969	119.563	N.3	1	UNK0	0.000	
57	 C27	-14.624	206.687	121.014	C.3	1	UNK0	0.000	
58	  O3	-13.732	207.370	116.753	O.3	1	UNK0	0.000	
59	 C28	-14.686	208.152	116.062	C.3	1	UNK0	0.000	
@<TRIPOS>BOND
1 25 26 1
2 25 30 1
3 10 26 1
4 26 27 1
5 26 55 1
6 12 27 1
7 14 27 1
8 27 28 1
9 11 28 1
10 28 29 1
11 28 56 1
12 6 29 1
13 29 30 1
14 29 58 1
15 30 31 1
16 30 32 1
17 8 31 1
18 9 31 1
19 16 31 1
20 32 33 1
21 32 40 1
22 33 34 1
23 33 38 2
24 34 35 2
25 34 55 1
26 35 36 1
27 35 49 1
28 36 37 2
29 36 47 1
30 37 38 1
31 37 45 1
32 38 39 1
33 39 40 1
34 39 44 2
35 40 41 2
36 5 41 1
37 41 42 1
38 18 42 1
39 42 43 2
40 21 43 1
41 43 44 1
42 20 44 1
43 19 45 1
44 45 46 2
45 46 47 1
46 47 48 2
47 49 50 1
48 49 54 2
49 50 51 2
50 50 55 1
51 13 51 1
52 51 52 1
53 1 52 1
54 52 53 2
55 24 53 1
56 53 54 1
57 23 54 1
58 3 56 1
59 56 57 1
60 2 57 1
61 7 57 1
62 15 57 1
63 58 59 1
64 4 59 1
65 17 59 1
66 22 59 1
@<TRIPOS>SUBSTRUCTURE
1	UNK0	1	GROUP	1 ****	UNK
