# created with PyMOL 2.5.0
@<TRIPOS>MOLECULE
cocrystal/docking_cocrystal/1dm2_HMD_LIG.pdb
19 21 1                 
SMALL
USER_CHARGES
@<TRIPOS>ATOM
1	 Br1	-10.798	204.777	117.381	Br	1	UNK0	0.000	
2	  O1	-15.656	204.007	115.265	O.2	1	UNK0	0.000	
3	  O2	-12.429	206.881	109.345	O.2	1	UNK0	0.000	
4	  N1	-13.042	204.474	115.784	N.2	1	UNK0	0.000	
5	  N2	-15.361	204.065	112.995	N.pl3	1	UNK0	0.000	
6	  N3	-10.233	207.226	109.935	N.2	1	UNK0	0.000	
7	  N4	-10.327	206.602	112.090	N.pl3	1	UNK0	0.000	
8	  N5	-8.276	207.303	111.246	N.pl3	1	UNK0	0.000	
9	  C1	-11.811	204.984	115.845	C.3	1	UNK0	0.000	
10	  C2	-11.479	205.612	114.681	C.2	1	UNK0	0.000	
11	  C3	-12.597	205.468	113.817	C.2	1	UNK0	0.000	
12	  C4	-13.569	204.741	114.570	C.2	1	UNK0	0.000	
13	  C5	-14.927	204.248	114.295	C.2	1	UNK0	0.000	
14	  C6	-14.626	204.305	111.742	C.3	1	UNK0	0.000	
15	  C7	-14.069	205.713	111.629	C.3	1	UNK0	0.000	
16	  C8	-12.724	205.881	112.331	C.2	1	UNK0	0.000	
17	  C9	-11.633	206.392	111.622	C.2	1	UNK0	0.000	
18	 C10	-11.511	206.852	110.180	C.2	1	UNK0	0.000	
19	 C11	-9.561	207.055	111.080	C.2	1	UNK0	0.000	
@<TRIPOS>BOND
1 1 9 1
2 2 13 2
3 3 18 2
4 4 9 1
5 4 12 2
6 5 13 1
7 5 14 1
8 6 18 1
9 6 19 2
10 7 17 1
11 7 19 1
12 8 19 1
13 9 10 1
14 10 11 2
15 11 12 1
16 11 16 1
17 12 13 1
18 14 15 1
19 15 16 1
20 16 17 2
21 17 18 1
@<TRIPOS>SUBSTRUCTURE
1	UNK0	1	GROUP	1 ****	UNK
