# created with PyMOL 2.5.0
@<TRIPOS>MOLECULE
cocrystal/docking_cocrystal/1di8_DTQ_LIG.pdb
22 24 1                 
SMALL
USER_CHARGES
@<TRIPOS>ATOM
1	  N1	-11.263	206.828	110.584	N.2	1	UNK0	0.000	
2	  C1	-12.211	207.002	109.588	C.2	1	UNK0	0.000	
3	  N2	-13.539	206.629	109.775	N.2	1	UNK0	0.000	
4	  C2	-13.985	206.016	110.987	C.2	1	UNK0	0.000	
5	  C3	-12.958	205.762	112.119	C.2	1	UNK0	0.000	
6	  C4	-11.567	206.261	111.877	C.2	1	UNK0	0.000	
7	  C5	-15.392	205.635	111.167	C.2	1	UNK0	0.000	
8	  C6	-15.859	205.008	112.422	C.2	1	UNK0	0.000	
9	  C7	-14.858	204.673	113.498	C.2	1	UNK0	0.000	
10	  C8	-13.417	205.052	113.323	C.2	1	UNK0	0.000	
11	  N3	-10.550	206.179	112.862	N.pl3	1	UNK0	0.000	
12	  C9	-9.653	207.069	113.477	C.2	1	UNK0	0.000	
13	 C10	-8.379	207.266	112.750	C.2	1	UNK0	0.000	
14	 C11	-7.327	208.155	113.288	C.2	1	UNK0	0.000	
15	 C12	-7.564	208.920	114.518	C.2	1	UNK0	0.000	
16	 C13	-8.824	208.745	115.266	C.2	1	UNK0	0.000	
17	 C14	-9.848	207.810	114.769	C.2	1	UNK0	0.000	
18	  O1	-6.111	208.273	112.651	O.3	1	UNK0	0.000	
19	  O2	-17.219	204.724	112.704	O.3	1	UNK0	0.000	
20	 C15	-18.258	205.710	112.720	C.3	1	UNK0	0.000	
21	  O3	-15.366	204.039	114.674	O.3	1	UNK0	0.000	
22	 C16	-15.471	204.747	115.914	C.3	1	UNK0	0.000	
@<TRIPOS>BOND
1 1 2 1
2 1 6 2
3 2 3 2
4 3 4 1
5 4 5 1
6 4 7 2
7 5 6 1
8 5 10 2
9 6 11 1
10 7 8 1
11 8 9 2
12 8 19 1
13 9 10 1
14 9 21 1
15 11 12 1
16 12 13 1
17 12 17 2
18 13 14 2
19 14 15 1
20 14 18 1
21 15 16 2
22 16 17 1
23 19 20 1
24 21 22 1
@<TRIPOS>SUBSTRUCTURE
1	UNK0	1	GROUP	1 ****	UNK
