# created with PyMOL 2.5.0
@<TRIPOS>MOLECULE
cocrystal/docking_cocrystal/1b38_ATP_LIG.pdb
47 49 1                 
SMALL
USER_CHARGES
@<TRIPOS>ATOM
1	 H06	-15.959	205.478	111.843	 H	1	UNK0	0.000	
2	 H03	-17.578	204.715	115.291	 H	1	UNK0	0.000	
3	 H07	-14.867	205.969	109.728	 H	1	UNK0	0.000	
4	 H08	-8.898	207.410	109.968	 H	1	UNK0	0.000	
5	 H13	-13.351	207.641	119.435	 H	1	UNK0	0.000	
6	 H09	-10.265	207.288	108.884	 H	1	UNK0	0.000	
7	 H14	-13.802	203.379	118.948	 H	1	UNK0	0.000	
8	 H11	-14.648	208.798	115.172	 H	1	UNK0	0.000	
9	 H02	-15.594	205.321	115.770	 H	1	UNK0	0.000	
10	 H12	-13.671	207.371	115.050	 H	1	UNK0	0.000	
11	 H01	-16.660	207.574	114.503	 H	1	UNK0	0.000	
12	 H15	-17.358	206.874	120.312	 H	1	UNK0	0.000	
13	 H10	-10.177	206.202	114.028	 H	1	UNK0	0.000	
14	 H16	-14.519	208.323	121.924	 H	1	UNK0	0.000	
15	 H05	-15.925	203.133	114.106	 H	1	UNK0	0.000	
16	 H04	-13.971	204.603	113.961	 H	1	UNK0	0.000	
17	  C1	-15.717	207.041	114.378	C.3	1	UNK0	0.000	
18	  O1	-15.264	207.073	113.019	O.3	1	UNK0	0.000	
19	  C2	-15.874	205.561	114.744	C.3	1	UNK0	0.000	
20	  O2	-17.250	205.197	114.528	O.3	1	UNK0	0.000	
21	  C3	-14.994	204.836	113.666	C.3	1	UNK0	0.000	
22	  O3	-15.737	203.640	113.313	O.3	1	UNK0	0.000	
23	  C4	-15.126	205.800	112.468	C.3	1	UNK0	0.000	
24	  N1	-13.918	205.839	111.649	N.pl3	1	UNK0	0.000	
25	  C5	-13.960	206.088	110.320	C.2	1	UNK0	0.000	
26	  N2	-12.863	206.468	109.820	N.2	1	UNK0	0.000	
27	  C6	-12.000	206.504	110.814	C.2	1	UNK0	0.000	
28	  C7	-10.640	206.827	110.819	C.2	1	UNK0	0.000	
29	  N3	-9.874	207.205	109.811	N.pl3	1	UNK0	0.000	
30	  N4	-10.042	206.744	112.028	N.2	1	UNK0	0.000	
31	  C8	-10.746	206.317	113.106	C.2	1	UNK0	0.000	
32	  N5	-12.020	206.026	113.185	N.2	1	UNK0	0.000	
33	  C9	-12.605	206.102	111.983	C.2	1	UNK0	0.000	
34	 C10	-14.679	207.714	115.284	C.3	1	UNK0	0.000	
35	  O4	-15.080	207.290	116.602	O.3	1	UNK0	0.000	
36	  P1	-13.967	206.854	117.653	P.3	1	UNK0	0.000	
37	  O5	-13.890	207.942	118.699	O.3	1	UNK0	0.000	
38	  O6	-12.747	206.520	116.965	O.co2	1	UNK0	0.000	
39	  O7	-14.641	205.647	118.526	O.3	1	UNK0	0.000	
40	  P2	-14.100	205.088	119.932	P.3	1	UNK0	0.000	
41	  O8	-12.976	205.959	120.335	O.co2	1	UNK0	0.000	
42	  O9	-13.847	203.655	119.867	O.3	1	UNK0	0.000	
43	 O10	-15.425	205.448	120.741	O.3	1	UNK0	0.000	
44	  P3	-15.788	206.762	121.536	P.3	1	UNK0	0.000	
45	 O11	-17.047	207.343	121.090	O.3	1	UNK0	0.000	
46	 O12	-15.684	206.520	122.999	O.co2	1	UNK0	0.000	
47	 O13	-14.721	207.774	121.163	O.3	1	UNK0	0.000	
@<TRIPOS>BOND
1 11 17 1
2 17 18 1
3 17 19 1
4 17 34 1
5 18 23 1
6 9 19 1
7 19 20 1
8 19 21 1
9 2 20 1
10 16 21 1
11 21 22 1
12 21 23 1
13 15 22 1
14 1 23 1
15 23 24 1
16 24 25 1
17 24 33 1
18 3 25 1
19 25 26 2
20 26 27 1
21 27 28 2
22 27 33 1
23 28 29 1
24 28 30 1
25 4 29 1
26 6 29 1
27 30 31 2
28 13 31 1
29 31 32 1
30 32 33 2
31 8 34 1
32 10 34 1
33 34 35 1
34 35 36 1
35 36 37 1
36 36 38 2
37 36 39 1
38 5 37 1
39 39 40 1
40 40 41 2
41 40 42 1
42 40 43 1
43 7 42 1
44 43 44 1
45 44 45 1
46 44 46 2
47 44 47 1
48 12 45 1
49 14 47 1
@<TRIPOS>SUBSTRUCTURE
1	UNK0	1	GROUP	1 ****	UNK
