# created with PyMOL 2.5.0
@<TRIPOS>MOLECULE
cocrystal/docking_cocrystal/1aq1_STU_LIG.pdb
35 42 1                 
SMALL
USER_CHARGES
@<TRIPOS>ATOM
1	  O1	-12.355	204.536	117.232	O.3	1	UNK0	0.000	
2	  C1	-11.581	205.467	117.973	C.3	1	UNK0	0.000	
3	  C2	-12.460	206.335	118.910	C.3	1	UNK0	0.000	
4	  C3	-13.936	205.987	118.701	C.3	1	UNK0	0.000	
5	  C4	-14.288	206.115	117.190	C.3	1	UNK0	0.000	
6	  C5	-13.513	204.932	116.518	C.3	1	UNK0	0.000	
7	  C6	-14.425	203.720	116.567	C.3	1	UNK0	0.000	
8	  N1	-13.134	205.235	115.111	N.pl3	1	UNK0	0.000	
9	  C7	-11.883	205.857	114.862	C.2	1	UNK0	0.000	
10	  C8	-10.894	206.264	115.664	C.2	1	UNK0	0.000	
11	  C9	-9.719	206.908	115.167	C.2	1	UNK0	0.000	
12	 C10	-9.683	207.059	113.703	C.2	1	UNK0	0.000	
13	 C11	-10.653	206.658	112.924	C.2	1	UNK0	0.000	
14	 C12	-11.825	206.045	113.427	C.2	1	UNK0	0.000	
15	 C13	-13.007	205.516	112.861	C.2	1	UNK0	0.000	
16	 C14	-13.833	205.016	113.915	C.2	1	UNK0	0.000	
17	 C15	-15.044	204.466	113.629	C.2	1	UNK0	0.000	
18	 C16	-15.471	204.378	112.338	C.2	1	UNK0	0.000	
19	 C17	-14.679	204.877	111.262	C.2	1	UNK0	0.000	
20	 C18	-13.464	205.444	111.567	C.2	1	UNK0	0.000	
21	 C19	-10.340	206.988	111.453	C.2	1	UNK0	0.000	
22	  N2	-9.046	207.610	111.642	N.2	1	UNK0	0.000	
23	 C20	-8.595	207.706	112.902	C.2	1	UNK0	0.000	
24	  O2	-7.551	208.191	113.290	O.2	1	UNK0	0.000	
25	 C21	-8.898	207.254	116.257	C.2	1	UNK0	0.000	
26	 C22	-9.578	206.815	117.430	C.2	1	UNK0	0.000	
27	 C23	-9.033	206.943	118.711	C.2	1	UNK0	0.000	
28	 C24	-7.800	207.547	118.815	C.2	1	UNK0	0.000	
29	 C25	-7.121	207.998	117.659	C.2	1	UNK0	0.000	
30	 C26	-7.659	207.833	116.417	C.2	1	UNK0	0.000	
31	  N3	-10.760	206.269	117.072	N.pl3	1	UNK0	0.000	
32	  N4	-14.808	206.969	119.563	N.3	1	UNK0	0.000	
33	 C27	-14.624	206.687	121.014	C.3	1	UNK0	0.000	
34	  O3	-13.732	207.370	116.753	O.3	1	UNK0	0.000	
35	 C28	-14.686	208.152	116.062	C.3	1	UNK0	0.000	
@<TRIPOS>BOND
1 1 2 1
2 1 6 1
3 2 3 1
4 2 31 1
5 3 4 1
6 4 5 1
7 4 32 1
8 5 6 1
9 5 34 1
10 6 7 1
11 6 8 1
12 8 9 1
13 8 16 1
14 9 10 1
15 9 14 2
16 10 11 2
17 10 31 1
18 11 12 1
19 11 25 1
20 12 13 2
21 12 23 1
22 13 14 1
23 13 21 1
24 14 15 1
25 15 16 1
26 15 20 2
27 16 17 2
28 17 18 1
29 18 19 2
30 19 20 1
31 21 22 2
32 22 23 1
33 23 24 2
34 25 26 1
35 25 30 2
36 26 27 2
37 26 31 1
38 27 28 1
39 28 29 2
40 29 30 1
41 32 33 1
42 34 35 1
@<TRIPOS>SUBSTRUCTURE
1	UNK0	1	GROUP	1 ****	UNK
