# created with PyMOL 2.5.0
@<TRIPOS>MOLECULE
cocrystal/docking_cocrystal/1ckp_PVB_LIG.pdb
28 30 1                 
SMALL
USER_CHARGES
@<TRIPOS>ATOM
1	 H06	-11.926	205.897	110.634	 H	1	UNK0	0.000	
2	 H07	-13.036	203.432	112.602	 H	1	UNK0	0.000	
3	 H08	-15.356	202.721	113.113	 H	1	UNK0	0.000	
4	 H01	-6.841	209.089	113.981	 H	1	UNK0	0.000	
5	 H10	-14.503	207.228	111.196	 H	1	UNK0	0.000	
6	 H05	-8.738	209.698	112.057	 H	1	UNK0	0.000	
7	 H03	-7.353	207.984	115.279	 H	1	UNK0	0.000	
8	 H02	-8.052	209.618	115.173	 H	1	UNK0	0.000	
9	 H09	-17.261	204.255	112.664	 H	1	UNK0	0.000	
10	 H04	-10.514	204.505	115.597	 H	1	UNK0	0.000	
11	  N1	-11.332	205.080	113.728	N.2	1	UNK0	0.000	
12	  C1	-7.681	208.769	114.598	C.3	1	UNK0	0.000	
13	  N2	-8.781	208.241	113.713	N.pl3	1	UNK0	0.000	
14	  C2	-9.602	207.107	113.895	C.2	1	UNK0	0.000	
15	  N3	-9.585	206.225	114.938	N.2	1	UNK0	0.000	
16	  C3	-10.465	205.246	114.799	C.2	1	UNK0	0.000	
17	  C4	-11.362	205.965	112.660	C.2	1	UNK0	0.000	
18	  C5	-10.420	207.078	112.745	C.2	1	UNK0	0.000	
19	  N4	-10.164	208.115	111.904	N.2	1	UNK0	0.000	
20	  C6	-9.183	208.800	112.485	C.2	1	UNK0	0.000	
21	  N5	-12.240	205.768	111.585	N.pl3	1	UNK0	0.000	
22	  C7	-13.615	205.372	111.865	C.2	1	UNK0	0.000	
23	  C8	-13.866	204.110	112.404	C.2	1	UNK0	0.000	
24	  C9	-15.172	203.709	112.691	C.2	1	UNK0	0.000	
25	 C10	-16.242	204.570	112.440	C.2	1	UNK0	0.000	
26	 C11	-16.002	205.839	111.901	C.2	1	UNK0	0.000	
27	 Cl1	-17.313	206.906	111.592	Cl	1	UNK0	0.000	
28	 C12	-14.690	206.239	111.615	C.2	1	UNK0	0.000	
@<TRIPOS>BOND
1 11 16 1
2 11 17 2
3 4 12 1
4 7 12 1
5 8 12 1
6 12 13 1
7 13 14 1
8 13 20 1
9 14 15 1
10 14 18 2
11 15 16 2
12 10 16 1
13 17 18 1
14 17 21 1
15 18 19 1
16 19 20 2
17 6 20 1
18 1 21 1
19 21 22 1
20 22 23 2
21 22 28 1
22 2 23 1
23 23 24 1
24 3 24 1
25 24 25 2
26 9 25 1
27 25 26 1
28 26 27 1
29 26 28 2
30 5 28 1
@<TRIPOS>SUBSTRUCTURE
1	UNK0	1	GROUP	1 ****	UNK
