# created with PyMOL 2.5.0
@<TRIPOS>MOLECULE
cocrystal/docking_cocrystal/1dm2_HMD_LIG.pdb
19 21 1                 
SMALL
USER_CHARGES
@<TRIPOS>ATOM
1	 Br1	-19.008	206.292	112.062	Br	1	UNK0	0.000	
2	  O1	-16.697	204.337	116.479	O.2	1	UNK0	0.000	
3	  O2	-10.588	205.634	112.641	O.2	1	UNK0	0.000	
4	  N1	-17.329	205.499	114.118	N.2	1	UNK0	0.000	
5	  N2	-14.513	205.022	116.393	N.pl3	1	UNK0	0.000	
6	  N3	-11.279	206.608	110.676	N.2	1	UNK0	0.000	
7	  N4	-13.502	206.497	110.970	N.pl3	1	UNK0	0.000	
8	  N5	-12.709	207.459	109.007	N.pl3	1	UNK0	0.000	
9	  C1	-17.380	205.874	112.838	C.3	1	UNK0	0.000	
10	  C2	-16.137	205.893	112.279	C.2	1	UNK0	0.000	
11	  C3	-15.232	205.509	113.305	C.2	1	UNK0	0.000	
12	  C4	-16.042	205.262	114.455	C.2	1	UNK0	0.000	
13	  C5	-15.768	204.846	115.839	C.2	1	UNK0	0.000	
14	  C6	-13.312	205.603	115.770	C.3	1	UNK0	0.000	
15	  C7	-12.923	204.932	114.465	C.3	1	UNK0	0.000	
16	  C8	-13.686	205.478	113.262	C.2	1	UNK0	0.000	
17	  C9	-12.979	205.950	112.151	C.2	1	UNK0	0.000	
18	 C10	-11.486	206.029	111.882	C.2	1	UNK0	0.000	
19	 C11	-12.488	206.880	110.172	C.2	1	UNK0	0.000	
@<TRIPOS>BOND
1 1 9 1
2 2 13 2
3 3 18 2
4 4 9 1
5 4 12 2
6 5 13 1
7 5 14 1
8 6 18 1
9 6 19 2
10 7 17 1
11 7 19 1
12 8 19 1
13 9 10 1
14 10 11 2
15 11 12 1
16 11 16 1
17 12 13 1
18 14 15 1
19 15 16 1
20 16 17 2
21 17 18 1
@<TRIPOS>SUBSTRUCTURE
1	UNK0	1	GROUP	1 ****	UNK
