# created with PyMOL 2.5.0
@<TRIPOS>MOLECULE
cocrystal/docking_cocrystal/1di8_DTQ_LIG.pdb
22 24 1                 
SMALL
USER_CHARGES
@<TRIPOS>ATOM
1	  N1	-11.322	207.258	109.619	N.2	1	UNK0	0.000	
2	  C1	-12.665	206.997	109.395	C.2	1	UNK0	0.000	
3	  N2	-13.459	206.384	110.360	N.2	1	UNK0	0.000	
4	  C2	-12.923	205.961	111.616	C.2	1	UNK0	0.000	
5	  C3	-11.418	206.193	111.904	C.2	1	UNK0	0.000	
6	  C4	-10.647	206.929	110.853	C.2	1	UNK0	0.000	
7	  C5	-13.778	205.321	112.624	C.2	1	UNK0	0.000	
8	  C6	-13.230	204.889	113.928	C.2	1	UNK0	0.000	
9	  C7	-11.752	205.027	114.191	C.2	1	UNK0	0.000	
10	  C8	-10.868	205.673	113.166	C.2	1	UNK0	0.000	
11	  N3	-9.286	207.291	111.024	N.pl3	1	UNK0	0.000	
12	  C9	-8.428	207.542	112.107	C.2	1	UNK0	0.000	
13	 C10	-8.950	208.507	113.101	C.2	1	UNK0	0.000	
14	 C11	-8.149	208.889	114.283	C.2	1	UNK0	0.000	
15	 C12	-6.848	208.255	114.530	C.2	1	UNK0	0.000	
16	 C13	-6.300	207.290	113.559	C.2	1	UNK0	0.000	
17	 C14	-7.066	206.955	112.345	C.2	1	UNK0	0.000	
18	  O1	-8.603	209.848	115.162	O.3	1	UNK0	0.000	
19	  O2	-14.022	204.374	114.985	O.3	1	UNK0	0.000	
20	 C15	-15.284	204.922	115.384	C.3	1	UNK0	0.000	
21	  O3	-11.279	204.563	115.456	O.3	1	UNK0	0.000	
22	 C16	-10.580	205.432	116.354	C.3	1	UNK0	0.000	
@<TRIPOS>BOND
1 1 2 1
2 1 6 2
3 2 3 2
4 3 4 1
5 4 5 1
6 4 7 2
7 5 6 1
8 5 10 2
9 6 11 1
10 7 8 1
11 8 9 2
12 8 19 1
13 9 10 1
14 9 21 1
15 11 12 1
16 12 13 1
17 12 17 2
18 13 14 2
19 14 15 1
20 14 18 1
21 15 16 2
22 16 17 1
23 19 20 1
24 21 22 1
@<TRIPOS>SUBSTRUCTURE
1	UNK0	1	GROUP	1 ****	UNK
