# created with PyMOL 2.5.0
@<TRIPOS>MOLECULE
cocrystal/docking_cocrystal/1aq1_STU_LIG.pdb
35 42 1                 
SMALL
USER_CHARGES
@<TRIPOS>ATOM
1	  O1	-12.891	204.936	116.276	O.3	1	UNK0	0.000	
2	  C1	-11.697	205.641	116.581	C.3	1	UNK0	0.000	
3	  C2	-11.921	206.711	117.680	C.3	1	UNK0	0.000	
4	  C3	-13.402	206.755	118.062	C.3	1	UNK0	0.000	
5	  C4	-14.262	206.961	116.782	C.3	1	UNK0	0.000	
6	  C5	-14.104	205.614	115.999	C.3	1	UNK0	0.000	
7	  C6	-15.188	204.679	116.502	C.3	1	UNK0	0.000	
8	  N1	-14.228	205.801	114.526	N.pl3	1	UNK0	0.000	
9	  C7	-13.057	206.078	113.774	C.2	1	UNK0	0.000	
10	  C8	-11.772	206.220	114.112	C.2	1	UNK0	0.000	
11	  C9	-10.759	206.536	113.157	C.2	1	UNK0	0.000	
12	 C10	-11.247	206.663	111.773	C.2	1	UNK0	0.000	
13	 C11	-12.506	206.522	111.449	C.2	1	UNK0	0.000	
14	 C12	-13.507	206.236	112.407	C.2	1	UNK0	0.000	
15	 C13	-14.904	206.027	112.371	C.2	1	UNK0	0.000	
16	 C14	-15.360	205.763	113.699	C.2	1	UNK0	0.000	
17	 C15	-16.682	205.542	113.935	C.2	1	UNK0	0.000	
18	 C16	-17.576	205.560	112.906	C.2	1	UNK0	0.000	
19	 C17	-17.158	205.832	111.570	C.2	1	UNK0	0.000	
20	 C18	-15.821	206.068	111.348	C.2	1	UNK0	0.000	
21	 C19	-12.707	206.752	109.940	C.2	1	UNK0	0.000	
22	  N2	-11.330	207.020	109.577	N.2	1	UNK0	0.000	
23	 C20	-10.426	207.003	110.567	C.2	1	UNK0	0.000	
24	  O2	-9.229	207.205	110.493	O.2	1	UNK0	0.000	
25	 C21	-9.527	206.664	113.828	C.2	1	UNK0	0.000	
26	 C22	-9.793	206.422	115.207	C.2	1	UNK0	0.000	
27	 C23	-8.788	206.412	116.178	C.2	1	UNK0	0.000	
28	 C24	-7.504	206.678	115.762	C.2	1	UNK0	0.000	
29	 C25	-7.230	206.932	114.398	C.2	1	UNK0	0.000	
30	 C26	-8.222	206.904	113.463	C.2	1	UNK0	0.000	
31	  N3	-11.116	206.198	115.365	N.pl3	1	UNK0	0.000	
32	  N4	-13.622	207.934	119.078	N.3	1	UNK0	0.000	
33	 C27	-14.145	207.413	120.371	C.3	1	UNK0	0.000	
34	  O3	-13.633	208.028	116.044	O.3	1	UNK0	0.000	
35	 C28	-14.583	208.953	115.553	C.3	1	UNK0	0.000	
@<TRIPOS>BOND
1 1 2 1
2 1 6 1
3 2 3 1
4 2 31 1
5 3 4 1
6 4 5 1
7 4 32 1
8 5 6 1
9 5 34 1
10 6 7 1
11 6 8 1
12 8 9 1
13 8 16 1
14 9 10 1
15 9 14 2
16 10 11 2
17 10 31 1
18 11 12 1
19 11 25 1
20 12 13 2
21 12 23 1
22 13 14 1
23 13 21 1
24 14 15 1
25 15 16 1
26 15 20 2
27 16 17 2
28 17 18 1
29 18 19 2
30 19 20 1
31 21 22 2
32 22 23 1
33 23 24 2
34 25 26 1
35 25 30 2
36 26 27 2
37 26 31 1
38 27 28 1
39 28 29 2
40 29 30 1
41 32 33 1
42 34 35 1
@<TRIPOS>SUBSTRUCTURE
1	UNK0	1	GROUP	1 ****	UNK
