# created with PyMOL 2.5.0
@<TRIPOS>MOLECULE
cocrystal/docking_cocrystal/1b39_ATP_LIG.pdb
31 33 1                 
SMALL
USER_CHARGES
@<TRIPOS>ATOM
1	  C1	-10.985	204.835	116.563	C.3	1	UNK0	0.000	
2	  O1	-11.029	204.474	115.171	O.3	1	UNK0	0.000	
3	  C2	-10.380	206.244	116.656	C.3	1	UNK0	0.000	
4	  O2	-8.942	206.001	116.794	O.3	1	UNK0	0.000	
5	  C3	-10.657	206.749	115.191	C.3	1	UNK0	0.000	
6	  O3	-9.684	207.785	114.907	O.3	1	UNK0	0.000	
7	  C4	-10.449	205.451	114.356	C.3	1	UNK0	0.000	
8	  N1	-11.281	205.363	113.144	N.pl3	1	UNK0	0.000	
9	  C5	-12.559	204.891	113.145	C.2	1	UNK0	0.000	
10	  N2	-13.308	205.215	112.168	N.2	1	UNK0	0.000	
11	  C6	-12.522	205.928	111.394	C.2	1	UNK0	0.000	
12	  C7	-12.809	206.539	110.193	C.2	1	UNK0	0.000	
13	  N3	-13.964	206.544	109.542	N.pl3	1	UNK0	0.000	
14	  N4	-11.803	207.241	109.624	N.2	1	UNK0	0.000	
15	  C8	-10.585	207.314	110.245	C.2	1	UNK0	0.000	
16	  N5	-10.220	206.761	111.394	N.2	1	UNK0	0.000	
17	  C9	-11.254	206.065	111.932	C.2	1	UNK0	0.000	
18	 C10	-12.407	204.837	117.123	C.3	1	UNK0	0.000	
19	  O4	-12.565	206.076	117.888	O.3	1	UNK0	0.000	
20	  P1	-14.040	206.620	117.829	P.3	1	UNK0	0.000	
21	  O5	-14.078	208.122	117.969	O.co2	1	UNK0	0.000	
22	  O6	-14.905	206.073	118.899	O.co2	1	UNK0	0.000	
23	  O7	-14.545	206.293	116.323	O.3	1	UNK0	0.000	
24	  P2	-15.116	207.178	115.086	P.3	1	UNK0	0.000	
25	  O8	-14.037	207.531	114.182	O.co2	1	UNK0	0.000	
26	  O9	-15.733	208.388	115.685	O.co2	1	UNK0	0.000	
27	 O10	-16.241	206.211	114.515	O.3	1	UNK0	0.000	
28	  P3	-16.627	206.010	112.993	P.3	1	UNK0	0.000	
29	 O11	-15.679	206.627	112.056	O.co2	1	UNK0	0.000	
30	 O12	-16.771	204.557	112.728	O.co2	1	UNK0	0.000	
31	 O13	-17.990	206.583	112.762	O.co2	1	UNK0	0.000	
@<TRIPOS>BOND
1 1 2 1
2 1 3 1
3 1 18 1
4 2 7 1
5 3 4 1
6 3 5 1
7 5 6 1
8 5 7 1
9 7 8 1
10 8 9 1
11 8 17 1
12 9 10 2
13 10 11 1
14 11 12 2
15 11 17 1
16 12 13 1
17 12 14 1
18 14 15 2
19 15 16 1
20 16 17 2
21 18 19 1
22 19 20 1
23 20 21 1
24 20 22 2
25 20 23 1
26 23 24 1
27 24 25 2
28 24 26 1
29 24 27 1
30 27 28 1
31 28 29 1
32 28 30 2
33 28 31 1
@<TRIPOS>SUBSTRUCTURE
1	UNK0	1	GROUP	1 ****	UNK
