# created with PyMOL 2.5.0
@<TRIPOS>MOLECULE
cocrystal/docking_cocrystal/1di8_DTQ_LIG.pdb
22 24 1                 
SMALL
USER_CHARGES
@<TRIPOS>ATOM
1	  N1	-11.333	206.752	110.500	N.2	1	UNK0	0.000	
2	  C1	-12.314	207.058	109.570	C.2	1	UNK0	0.000	
3	  N2	-13.651	206.738	109.791	N.2	1	UNK0	0.000	
4	  C2	-14.075	206.048	110.969	C.2	1	UNK0	0.000	
5	  C3	-13.012	205.647	112.023	C.2	1	UNK0	0.000	
6	  C4	-11.608	206.094	111.755	C.2	1	UNK0	0.000	
7	  C5	-15.490	205.725	111.186	C.2	1	UNK0	0.000	
8	  C6	-15.934	205.018	112.407	C.2	1	UNK0	0.000	
9	  C7	-14.905	204.543	113.401	C.2	1	UNK0	0.000	
10	  C8	-13.455	204.862	113.187	C.2	1	UNK0	0.000	
11	  N3	-10.554	205.878	112.678	N.pl3	1	UNK0	0.000	
12	  C9	-10.169	206.397	113.926	C.2	1	UNK0	0.000	
13	 C10	-9.661	207.787	113.888	C.2	1	UNK0	0.000	
14	 C11	-9.196	208.460	115.119	C.2	1	UNK0	0.000	
15	 C12	-9.304	207.782	116.417	C.2	1	UNK0	0.000	
16	 C13	-9.807	206.397	116.488	C.2	1	UNK0	0.000	
17	 C14	-10.209	205.699	115.255	C.2	1	UNK0	0.000	
18	  O1	-8.648	209.723	115.068	O.3	1	UNK0	0.000	
19	  O2	-17.293	204.780	112.732	O.3	1	UNK0	0.000	
20	 C15	-18.326	205.769	112.639	C.3	1	UNK0	0.000	
21	  O3	-15.393	203.838	114.544	O.3	1	UNK0	0.000	
22	 C16	-15.053	204.249	115.873	C.3	1	UNK0	0.000	
@<TRIPOS>BOND
1 1 2 1
2 1 6 2
3 2 3 2
4 3 4 1
5 4 5 1
6 4 7 2
7 5 6 1
8 5 10 2
9 6 11 1
10 7 8 1
11 8 9 2
12 8 19 1
13 9 10 1
14 9 21 1
15 11 12 1
16 12 13 1
17 12 17 2
18 13 14 2
19 14 15 1
20 14 18 1
21 15 16 2
22 16 17 1
23 19 20 1
24 21 22 1
@<TRIPOS>SUBSTRUCTURE
1	UNK0	1	GROUP	1 ****	UNK
