# created with PyMOL 2.5.0
@<TRIPOS>MOLECULE
cocrystal/docking_cocrystal/1e1v_CMG_LIG.pdb
35 37 1                 
SMALL
USER_CHARGES
@<TRIPOS>ATOM
1	 H01	-13.838	204.300	118.236	 H	1	UNK0	0.000	
2	 H03	-13.675	204.477	120.591	 H	1	UNK0	0.000	
3	 H02	-19.566	201.743	118.314	 H	1	UNK0	0.000	
4	 H08	-14.568	206.708	113.389	 H	1	UNK0	0.000	
5	 H07	-16.839	204.500	113.359	 H	1	UNK0	0.000	
6	 H06	-16.371	205.540	115.708	 H	1	UNK0	0.000	
7	 H04	-13.030	203.004	120.222	 H	1	UNK0	0.000	
8	 H09	-16.286	207.094	113.379	 H	1	UNK0	0.000	
9	 H16	-14.291	203.486	113.708	 H	1	UNK0	0.000	
10	 H11	-16.318	205.525	111.182	 H	1	UNK0	0.000	
11	 H14	-13.779	203.492	111.288	 H	1	UNK0	0.000	
12	 H13	-13.802	205.867	110.248	 H	1	UNK0	0.000	
13	 H12	-13.320	206.253	111.809	 H	1	UNK0	0.000	
14	 H15	-15.424	203.922	111.271	 H	1	UNK0	0.000	
15	 H10	-15.852	207.158	110.986	 H	1	UNK0	0.000	
16	 H05	-14.673	205.574	115.424	 H	1	UNK0	0.000	
17	 H17	-13.733	205.157	113.513	 H	1	UNK0	0.000	
18	  N1	-14.381	203.793	117.639	N.2	1	UNK0	0.000	
19	  C1	-14.351	203.667	118.960	C.3	1	UNK0	0.000	
20	  N2	-15.436	203.177	119.589	N.2	1	UNK0	0.000	
21	  C2	-16.522	202.806	118.922	C.2	1	UNK0	0.000	
22	  C3	-16.548	202.969	117.571	C.2	1	UNK0	0.000	
23	  C4	-15.447	203.491	116.897	C.2	1	UNK0	0.000	
24	  N3	-17.750	202.509	117.253	N.2	1	UNK0	0.000	
25	  C5	-18.537	202.103	118.307	C.2	1	UNK0	0.000	
26	  N4	-17.670	202.278	119.332	N.2	1	UNK0	0.000	
27	  N5	-13.344	203.886	119.842	N.3	1	UNK0	0.000	
28	  O1	-15.534	203.605	115.511	O.3	1	UNK0	0.000	
29	  C6	-15.578	205.022	115.168	C.3	1	UNK0	0.000	
30	  C7	-15.881	204.950	113.617	C.3	1	UNK0	0.000	
31	  C8	-15.545	206.368	113.044	C.3	1	UNK0	0.000	
32	  C9	-15.576	206.249	111.520	C.3	1	UNK0	0.000	
33	 C10	-14.131	205.752	111.281	C.3	1	UNK0	0.000	
34	 C11	-14.464	204.250	111.668	C.3	1	UNK0	0.000	
35	 C12	-14.494	204.436	113.214	C.3	1	UNK0	0.000	
@<TRIPOS>BOND
1 18 19 1
2 18 23 2
3 1 19 1
4 19 20 1
5 19 27 1
6 20 21 2
7 21 22 1
8 21 26 1
9 22 23 1
10 22 24 2
11 23 28 1
12 24 25 1
13 3 25 1
14 25 26 2
15 2 27 1
16 7 27 1
17 28 29 1
18 6 29 1
19 16 29 1
20 29 30 1
21 5 30 1
22 30 31 1
23 30 35 1
24 4 31 1
25 8 31 1
26 31 32 1
27 10 32 1
28 15 32 1
29 32 33 1
30 12 33 1
31 13 33 1
32 33 34 1
33 11 34 1
34 14 34 1
35 34 35 1
36 9 35 1
37 17 35 1
@<TRIPOS>SUBSTRUCTURE
1	UNK0	1	GROUP	1 ****	UNK
