# created with PyMOL 2.5.0
@<TRIPOS>MOLECULE
cocrystal/docking_cocrystal/1e1v_CMG_LIG.pdb
18 20 1                 
SMALL
USER_CHARGES
@<TRIPOS>ATOM
1	  N1	-15.037	205.823	116.762	N.2	1	UNK0	0.000	
2	  C1	-14.898	207.100	116.429	C.3	1	UNK0	0.000	
3	  N2	-15.240	207.486	115.186	N.2	1	UNK0	0.000	
4	  C2	-15.724	206.628	114.296	C.2	1	UNK0	0.000	
5	  C3	-15.834	205.318	114.643	C.2	1	UNK0	0.000	
6	  C4	-15.469	204.887	115.916	C.2	1	UNK0	0.000	
7	  N3	-16.335	204.773	113.543	N.2	1	UNK0	0.000	
8	  C5	-16.513	205.626	112.478	C.2	1	UNK0	0.000	
9	  N4	-16.147	206.798	113.048	N.2	1	UNK0	0.000	
10	  N5	-14.518	208.168	117.175	N.3	1	UNK0	0.000	
11	  O1	-15.633	203.535	116.211	O.3	1	UNK0	0.000	
12	  C6	-15.880	203.405	117.644	C.3	1	UNK0	0.000	
13	  C7	-16.932	202.223	117.664	C.3	1	UNK0	0.000	
14	  C8	-16.172	200.977	118.234	C.3	1	UNK0	0.000	
15	  C9	-17.226	199.904	118.509	C.3	1	UNK0	0.000	
16	 C10	-17.667	200.348	119.924	C.3	1	UNK0	0.000	
17	 C11	-18.608	201.507	119.388	C.3	1	UNK0	0.000	
18	 C12	-17.493	202.542	119.054	C.3	1	UNK0	0.000	
@<TRIPOS>BOND
1 1 2 1
2 1 6 2
3 2 3 1
4 2 10 1
5 3 4 2
6 4 5 1
7 4 9 1
8 5 6 1
9 5 7 2
10 6 11 1
11 7 8 1
12 8 9 2
13 11 12 1
14 12 13 1
15 13 14 1
16 13 18 1
17 14 15 1
18 15 16 1
19 16 17 1
20 17 18 1
@<TRIPOS>SUBSTRUCTURE
1	UNK0	1	GROUP	1 ****	UNK
