# created with PyMOL 2.5.0
@<TRIPOS>MOLECULE
cocrystal/docking_cocrystal/1dm2_HMD_LIG.pdb
19 21 1                 
SMALL
USER_CHARGES
@<TRIPOS>ATOM
1	 Br1	-8.981	207.825	114.549	Br	1	UNK0	0.000	
2	  O1	-10.398	206.922	109.465	O.2	1	UNK0	0.000	
3	  O2	-16.497	204.417	112.666	O.2	1	UNK0	0.000	
4	  N1	-10.242	207.286	112.141	N.2	1	UNK0	0.000	
5	  N2	-12.676	206.686	109.488	N.pl3	1	UNK0	0.000	
6	  N3	-16.218	204.785	114.918	N.2	1	UNK0	0.000	
7	  N4	-14.128	205.604	114.903	N.pl3	1	UNK0	0.000	
8	  N5	-15.213	205.424	116.952	N.pl3	1	UNK0	0.000	
9	  C1	-10.327	207.158	113.467	C.3	1	UNK0	0.000	
10	  C2	-11.477	206.520	113.829	C.2	1	UNK0	0.000	
11	  C3	-12.172	206.236	112.623	C.2	1	UNK0	0.000	
12	  C4	-11.340	206.738	111.576	C.2	1	UNK0	0.000	
13	  C5	-11.446	206.788	110.110	C.2	1	UNK0	0.000	
14	  C6	-14.002	206.521	110.105	C.3	1	UNK0	0.000	
15	  C7	-14.090	205.328	111.039	C.3	1	UNK0	0.000	
16	  C8	-13.586	205.634	112.447	C.2	1	UNK0	0.000	
17	  C9	-14.410	205.376	113.547	C.2	1	UNK0	0.000	
18	 C10	-15.814	204.804	113.627	C.2	1	UNK0	0.000	
19	 C11	-15.203	205.273	115.641	C.2	1	UNK0	0.000	
@<TRIPOS>BOND
1 1 9 1
2 2 13 2
3 3 18 2
4 4 9 1
5 4 12 2
6 5 13 1
7 5 14 1
8 6 18 1
9 6 19 2
10 7 17 1
11 7 19 1
12 8 19 1
13 9 10 1
14 10 11 2
15 11 12 1
16 11 16 1
17 12 13 1
18 14 15 1
19 15 16 1
20 16 17 2
21 17 18 1
@<TRIPOS>SUBSTRUCTURE
1	UNK0	1	GROUP	1 ****	UNK
