# created with PyMOL 2.5.0
@<TRIPOS>MOLECULE
cocrystal/docking_cocrystal/1aq1_STU_LIG.pdb
59 66 1                 
SMALL
USER_CHARGES
@<TRIPOS>ATOM
1	 H15	-6.692	206.694	116.488	 H	1	UNK0	0.000	
2	 H21	-14.142	208.211	121.113	 H	1	UNK0	0.000	
3	 H18	-12.742	208.403	119.239	 H	1	UNK0	0.000	
4	 H24	-14.865	208.681	114.536	 H	1	UNK0	0.000	
5	 H09	-17.027	205.350	114.951	 H	1	UNK0	0.000	
6	 H05	-15.309	207.203	116.963	 H	1	UNK0	0.000	
7	 H20	-13.515	206.593	120.716	 H	1	UNK0	0.000	
8	 H07	-14.842	203.648	116.428	 H	1	UNK0	0.000	
9	 H06	-16.086	204.805	115.897	 H	1	UNK0	0.000	
10	 H01	-10.978	204.935	116.998	 H	1	UNK0	0.000	
11	 H04	-13.705	205.819	118.531	 H	1	UNK0	0.000	
12	 H03	-11.326	206.460	118.558	 H	1	UNK0	0.000	
13	 H14	-9.013	206.202	117.224	 H	1	UNK0	0.000	
14	 H02	-11.617	207.687	117.301	 H	1	UNK0	0.000	
15	 H19	-15.164	207.052	120.231	 H	1	UNK0	0.000	
16	 H08	-15.415	204.912	117.542	 H	1	UNK0	0.000	
17	 H23	-14.150	209.954	115.555	 H	1	UNK0	0.000	
18	 H10	-18.628	205.364	113.109	 H	1	UNK0	0.000	
19	 H13	-13.610	206.722	109.330	 H	1	UNK0	0.000	
20	 H12	-15.482	206.293	110.337	 H	1	UNK0	0.000	
21	 H11	-17.876	205.852	110.749	 H	1	UNK0	0.000	
22	 H22	-15.466	208.939	116.191	 H	1	UNK0	0.000	
23	 H17	-7.978	207.074	112.414	 H	1	UNK0	0.000	
24	 H16	-6.208	207.153	114.089	 H	1	UNK0	0.000	
25	  O1	-12.891	204.936	116.276	O.3	1	UNK0	0.000	
26	  C1	-11.697	205.641	116.581	C.3	1	UNK0	0.000	
27	  C2	-11.921	206.711	117.680	C.3	1	UNK0	0.000	
28	  C3	-13.402	206.755	118.062	C.3	1	UNK0	0.000	
29	  C4	-14.262	206.961	116.782	C.3	1	UNK0	0.000	
30	  C5	-14.104	205.614	115.999	C.3	1	UNK0	0.000	
31	  C6	-15.188	204.679	116.502	C.3	1	UNK0	0.000	
32	  N1	-14.228	205.801	114.526	N.pl3	1	UNK0	0.000	
33	  C7	-13.057	206.078	113.774	C.2	1	UNK0	0.000	
34	  C8	-11.772	206.220	114.112	C.2	1	UNK0	0.000	
35	  C9	-10.759	206.536	113.157	C.2	1	UNK0	0.000	
36	 C10	-11.247	206.663	111.773	C.2	1	UNK0	0.000	
37	 C11	-12.506	206.522	111.449	C.2	1	UNK0	0.000	
38	 C12	-13.507	206.236	112.407	C.2	1	UNK0	0.000	
39	 C13	-14.904	206.027	112.371	C.2	1	UNK0	0.000	
40	 C14	-15.360	205.763	113.699	C.2	1	UNK0	0.000	
41	 C15	-16.682	205.542	113.935	C.2	1	UNK0	0.000	
42	 C16	-17.576	205.560	112.906	C.2	1	UNK0	0.000	
43	 C17	-17.158	205.832	111.570	C.2	1	UNK0	0.000	
44	 C18	-15.821	206.068	111.348	C.2	1	UNK0	0.000	
45	 C19	-12.707	206.752	109.940	C.2	1	UNK0	0.000	
46	  N2	-11.330	207.020	109.577	N.2	1	UNK0	0.000	
47	 C20	-10.426	207.003	110.567	C.2	1	UNK0	0.000	
48	  O2	-9.229	207.205	110.493	O.2	1	UNK0	0.000	
49	 C21	-9.527	206.664	113.828	C.2	1	UNK0	0.000	
50	 C22	-9.793	206.422	115.207	C.2	1	UNK0	0.000	
51	 C23	-8.788	206.412	116.178	C.2	1	UNK0	0.000	
52	 C24	-7.504	206.678	115.762	C.2	1	UNK0	0.000	
53	 C25	-7.230	206.932	114.398	C.2	1	UNK0	0.000	
54	 C26	-8.222	206.904	113.463	C.2	1	UNK0	0.000	
55	  N3	-11.116	206.198	115.365	N.pl3	1	UNK0	0.000	
56	  N4	-13.622	207.934	119.078	N.3	1	UNK0	0.000	
57	 C27	-14.145	207.413	120.371	C.3	1	UNK0	0.000	
58	  O3	-13.633	208.028	116.044	O.3	1	UNK0	0.000	
59	 C28	-14.583	208.953	115.553	C.3	1	UNK0	0.000	
@<TRIPOS>BOND
1 25 26 1
2 25 30 1
3 10 26 1
4 26 27 1
5 26 55 1
6 12 27 1
7 14 27 1
8 27 28 1
9 11 28 1
10 28 29 1
11 28 56 1
12 6 29 1
13 29 30 1
14 29 58 1
15 30 31 1
16 30 32 1
17 8 31 1
18 9 31 1
19 16 31 1
20 32 33 1
21 32 40 1
22 33 34 1
23 33 38 2
24 34 35 2
25 34 55 1
26 35 36 1
27 35 49 1
28 36 37 2
29 36 47 1
30 37 38 1
31 37 45 1
32 38 39 1
33 39 40 1
34 39 44 2
35 40 41 2
36 5 41 1
37 41 42 1
38 18 42 1
39 42 43 2
40 21 43 1
41 43 44 1
42 20 44 1
43 19 45 1
44 45 46 2
45 46 47 1
46 47 48 2
47 49 50 1
48 49 54 2
49 50 51 2
50 50 55 1
51 13 51 1
52 51 52 1
53 1 52 1
54 52 53 2
55 24 53 1
56 53 54 1
57 23 54 1
58 3 56 1
59 56 57 1
60 2 57 1
61 7 57 1
62 15 57 1
63 58 59 1
64 4 59 1
65 17 59 1
66 22 59 1
@<TRIPOS>SUBSTRUCTURE
1	UNK0	1	GROUP	1 ****	UNK
