# created with PyMOL 2.5.0
@<TRIPOS>MOLECULE
cocrystal/docking_cocrystal/1e1x_NW1_LIG.pdb
35 36 1                 
SMALL
USER_CHARGES
@<TRIPOS>ATOM
1	 H01	-17.019	204.695	111.825	 H	1	UNK0	0.000	
2	 H03	-14.542	207.714	118.233	 H	1	UNK0	0.000	
3	 H02	-15.502	206.505	111.975	 H	1	UNK0	0.000	
4	 H08	-15.096	200.983	118.735	 H	1	UNK0	0.000	
5	 H07	-17.333	202.199	117.078	 H	1	UNK0	0.000	
6	 H06	-14.656	203.176	117.556	 H	1	UNK0	0.000	
7	 H04	-14.196	208.971	117.067	 H	1	UNK0	0.000	
8	 H09	-15.342	200.771	116.988	 H	1	UNK0	0.000	
9	 H16	-17.952	203.484	119.111	 H	1	UNK0	0.000	
10	 H11	-17.588	199.747	117.421	 H	1	UNK0	0.000	
11	 H14	-19.058	201.543	120.262	 H	1	UNK0	0.000	
12	 H13	-18.211	199.240	119.853	 H	1	UNK0	0.000	
13	 H12	-16.839	200.210	120.387	 H	1	UNK0	0.000	
14	 H15	-19.065	201.264	118.526	 H	1	UNK0	0.000	
15	 H10	-16.322	198.841	118.271	 H	1	UNK0	0.000	
16	 H05	-15.835	204.309	118.179	 H	1	UNK0	0.000	
17	 H17	-16.728	202.595	120.037	 H	1	UNK0	0.000	
18	  N1	-15.257	205.945	116.665	N.2	1	UNK0	0.000	
19	  C1	-15.649	205.060	115.709	C.2	1	UNK0	0.000	
20	  C2	-15.640	205.425	114.260	C.2	1	UNK0	0.000	
21	  N2	-16.113	204.392	113.358	N.2	1	UNK0	0.000	
22	  O1	-16.114	204.641	112.141	O.3	1	UNK0	0.000	
23	  C3	-15.248	206.663	113.959	C.2	1	UNK0	0.000	
24	  N3	-15.218	207.105	112.736	N.2	1	UNK0	0.000	
25	  N4	-14.832	207.523	115.077	N.2	1	UNK0	0.000	
26	  C4	-14.850	207.226	116.304	C.2	1	UNK0	0.000	
27	  N5	-14.503	208.031	117.275	N.pl3	1	UNK0	0.000	
28	  O2	-16.074	203.801	116.138	O.3	1	UNK0	0.000	
29	  C5	-15.706	203.464	117.503	C.3	1	UNK0	0.000	
30	  C6	-16.605	202.285	117.884	C.3	1	UNK0	0.000	
31	  C7	-15.841	200.947	117.940	C.3	1	UNK0	0.000	
32	  C8	-16.850	199.794	118.222	C.3	1	UNK0	0.000	
33	  C9	-17.568	200.078	119.586	C.3	1	UNK0	0.000	
34	 C10	-18.419	201.365	119.397	C.3	1	UNK0	0.000	
35	 C11	-17.410	202.542	119.189	C.3	1	UNK0	0.000	
@<TRIPOS>BOND
1 18 19 2
2 18 26 1
3 19 20 1
4 19 28 1
5 20 21 2
6 20 23 1
7 21 22 1
8 1 22 1
9 23 24 2
10 23 25 1
11 3 24 1
12 25 26 2
13 26 27 1
14 2 27 1
15 7 27 1
16 28 29 1
17 6 29 1
18 16 29 1
19 29 30 1
20 5 30 1
21 30 31 1
22 30 35 1
23 4 31 1
24 8 31 1
25 31 32 1
26 10 32 1
27 15 32 1
28 32 33 1
29 12 33 1
30 13 33 1
31 33 34 1
32 11 34 1
33 14 34 1
34 34 35 1
35 9 35 1
36 17 35 1
@<TRIPOS>SUBSTRUCTURE
1	UNK0	1	GROUP	1 ****	UNK
