# created with PyMOL 2.5.0
@<TRIPOS>MOLECULE
cocrystal/docking_cocrystal/1aq1_STU_LIG.pdb
35 42 1                 
SMALL
USER_CHARGES
@<TRIPOS>ATOM
1	  O1	-13.759	207.355	116.889	O.3	1	UNK0	0.000	
2	  C1	-14.578	206.574	116.032	C.3	1	UNK0	0.000	
3	  C2	-15.013	205.244	116.700	C.3	1	UNK0	0.000	
4	  C3	-14.356	205.120	118.076	C.3	1	UNK0	0.000	
5	  C4	-12.816	205.292	117.933	C.3	1	UNK0	0.000	
6	  C5	-12.637	206.801	117.554	C.3	1	UNK0	0.000	
7	  C6	-12.542	207.577	118.854	C.3	1	UNK0	0.000	
8	  N1	-11.421	207.032	116.725	N.pl3	1	UNK0	0.000	
9	  C7	-11.536	206.956	115.313	C.2	1	UNK0	0.000	
10	  C8	-12.563	206.705	114.496	C.2	1	UNK0	0.000	
11	  C9	-12.418	206.651	113.076	C.2	1	UNK0	0.000	
12	 C10	-11.053	206.920	112.594	C.2	1	UNK0	0.000	
13	 C11	-10.052	207.166	113.399	C.2	1	UNK0	0.000	
14	 C12	-10.200	207.191	114.806	C.2	1	UNK0	0.000	
15	 C13	-9.342	207.425	115.904	C.2	1	UNK0	0.000	
16	 C14	-10.102	207.317	117.108	C.2	1	UNK0	0.000	
17	 C15	-9.497	207.485	118.315	C.2	1	UNK0	0.000	
18	 C16	-8.165	207.768	118.382	C.2	1	UNK0	0.000	
19	 C17	-7.372	207.871	117.201	C.2	1	UNK0	0.000	
20	 C18	-7.994	207.685	115.989	C.2	1	UNK0	0.000	
21	 C19	-8.751	207.368	112.601	C.2	1	UNK0	0.000	
22	  N2	-9.286	207.189	111.267	N.2	1	UNK0	0.000	
23	 C20	-10.595	206.915	111.168	C.2	1	UNK0	0.000	
24	  O2	-11.247	206.723	110.160	O.2	1	UNK0	0.000	
25	 C21	-13.663	206.320	112.506	C.2	1	UNK0	0.000	
26	 C22	-14.576	206.174	113.590	C.2	1	UNK0	0.000	
27	 C23	-15.933	205.897	113.401	C.2	1	UNK0	0.000	
28	 C24	-16.370	205.736	112.106	C.2	1	UNK0	0.000	
29	 C25	-15.471	205.868	111.022	C.2	1	UNK0	0.000	
30	 C26	-14.158	206.170	111.230	C.2	1	UNK0	0.000	
31	  N3	-13.913	206.367	114.751	N.pl3	1	UNK0	0.000	
32	  N4	-14.707	203.710	118.672	N.3	1	UNK0	0.000	
33	 C27	-15.482	202.908	117.685	C.3	1	UNK0	0.000	
34	  O3	-12.421	204.462	116.822	O.3	1	UNK0	0.000	
35	 C28	-11.377	203.577	117.177	C.3	1	UNK0	0.000	
@<TRIPOS>BOND
1 1 2 1
2 1 6 1
3 2 3 1
4 2 31 1
5 3 4 1
6 4 5 1
7 4 32 1
8 5 6 1
9 5 34 1
10 6 7 1
11 6 8 1
12 8 9 1
13 8 16 1
14 9 10 1
15 9 14 2
16 10 11 2
17 10 31 1
18 11 12 1
19 11 25 1
20 12 13 2
21 12 23 1
22 13 14 1
23 13 21 1
24 14 15 1
25 15 16 1
26 15 20 2
27 16 17 2
28 17 18 1
29 18 19 2
30 19 20 1
31 21 22 2
32 22 23 1
33 23 24 2
34 25 26 1
35 25 30 2
36 26 27 2
37 26 31 1
38 27 28 1
39 28 29 2
40 29 30 1
41 32 33 1
42 34 35 1
@<TRIPOS>SUBSTRUCTURE
1	UNK0	1	GROUP	1 ****	UNK
