# created with PyMOL 2.5.0
@<TRIPOS>MOLECULE
cocrystal/docking_cocrystal/1b38_ATP_LIG.pdb
47 49 1                 
SMALL
USER_CHARGES
@<TRIPOS>ATOM
1	 H06	-9.542	205.229	114.021	 H	1	UNK0	0.000	
2	 H03	-8.782	205.270	116.545	 H	1	UNK0	0.000	
3	 H07	-13.100	204.259	113.960	 H	1	UNK0	0.000	
4	 H08	-14.006	207.113	108.593	 H	1	UNK0	0.000	
5	 H13	-13.975	208.465	118.456	 H	1	UNK0	0.000	
6	 H09	-14.802	206.153	109.819	 H	1	UNK0	0.000	
7	 H14	-15.827	209.248	115.056	 H	1	UNK0	0.000	
8	 H11	-12.652	203.831	117.794	 H	1	UNK0	0.000	
9	 H02	-11.041	206.786	117.323	 H	1	UNK0	0.000	
10	 H12	-13.221	204.455	116.280	 H	1	UNK0	0.000	
11	 H01	-10.453	204.059	117.146	 H	1	UNK0	0.000	
12	 H15	-16.328	204.777	111.496	 H	1	UNK0	0.000	
13	 H10	-9.767	207.666	109.737	 H	1	UNK0	0.000	
14	 H16	-15.409	207.860	112.616	 H	1	UNK0	0.000	
15	 H05	-9.345	207.971	115.585	 H	1	UNK0	0.000	
16	 H04	-11.678	207.193	114.903	 H	1	UNK0	0.000	
17	  C1	-11.073	204.716	116.535	C.3	1	UNK0	0.000	
18	  O1	-11.062	204.327	115.156	O.3	1	UNK0	0.000	
19	  C2	-10.552	206.157	116.580	C.3	1	UNK0	0.000	
20	  O2	-9.139	206.106	116.854	O.3	1	UNK0	0.000	
21	  C3	-10.754	206.650	115.105	C.3	1	UNK0	0.000	
22	  O3	-9.583	207.456	114.810	O.3	1	UNK0	0.000	
23	  C4	-10.585	205.333	114.317	C.3	1	UNK0	0.000	
24	  N1	-11.416	205.291	113.118	N.pl3	1	UNK0	0.000	
25	  C5	-12.700	204.868	113.149	C.2	1	UNK0	0.000	
26	  N2	-13.401	205.236	112.162	N.2	1	UNK0	0.000	
27	  C6	-12.605	205.951	111.395	C.2	1	UNK0	0.000	
28	  C7	-12.853	206.574	110.168	C.2	1	UNK0	0.000	
29	  N3	-13.975	206.617	109.472	N.pl3	1	UNK0	0.000	
30	  N4	-11.793	207.222	109.636	N.2	1	UNK0	0.000	
31	  C8	-10.591	207.186	110.265	C.2	1	UNK0	0.000	
32	  N5	-10.290	206.652	111.422	N.2	1	UNK0	0.000	
33	  C9	-11.342	206.004	111.938	C.2	1	UNK0	0.000	
34	 C10	-12.505	204.642	117.080	C.3	1	UNK0	0.000	
35	  O4	-12.697	205.949	117.655	O.3	1	UNK0	0.000	
36	  P1	-14.154	206.588	117.668	P.3	1	UNK0	0.000	
37	  O5	-13.985	208.087	117.574	O.3	1	UNK0	0.000	
38	  O6	-14.901	206.084	118.790	O.co2	1	UNK0	0.000	
39	  O7	-14.785	206.266	116.194	O.3	1	UNK0	0.000	
40	  P2	-15.198	207.356	115.089	P.3	1	UNK0	0.000	
41	  O8	-14.025	207.539	114.209	O.co2	1	UNK0	0.000	
42	  O9	-15.760	208.548	115.709	O.3	1	UNK0	0.000	
43	 O10	-16.300	206.438	114.396	O.3	1	UNK0	0.000	
44	  P3	-16.591	206.205	112.862	P.3	1	UNK0	0.000	
45	 O11	-16.321	204.833	112.454	O.3	1	UNK0	0.000	
46	 O12	-17.943	206.717	112.515	O.co2	1	UNK0	0.000	
47	 O13	-15.577	207.055	112.120	O.3	1	UNK0	0.000	
@<TRIPOS>BOND
1 11 17 1
2 17 18 1
3 17 19 1
4 17 34 1
5 18 23 1
6 9 19 1
7 19 20 1
8 19 21 1
9 2 20 1
10 16 21 1
11 21 22 1
12 21 23 1
13 15 22 1
14 1 23 1
15 23 24 1
16 24 25 1
17 24 33 1
18 3 25 1
19 25 26 2
20 26 27 1
21 27 28 2
22 27 33 1
23 28 29 1
24 28 30 1
25 4 29 1
26 6 29 1
27 30 31 2
28 13 31 1
29 31 32 1
30 32 33 2
31 8 34 1
32 10 34 1
33 34 35 1
34 35 36 1
35 36 37 1
36 36 38 2
37 36 39 1
38 5 37 1
39 39 40 1
40 40 41 2
41 40 42 1
42 40 43 1
43 7 42 1
44 43 44 1
45 44 45 1
46 44 46 2
47 44 47 1
48 12 45 1
49 14 47 1
@<TRIPOS>SUBSTRUCTURE
1	UNK0	1	GROUP	1 ****	UNK
