# created with PyMOL 2.5.0
@<TRIPOS>MOLECULE
cocrystal/docking_cocrystal/1b39_ATP_LIG.pdb
47 49 1                 
SMALL
USER_CHARGES
@<TRIPOS>ATOM
1	 H06	-10.415	203.999	115.668	 H	1	UNK0	0.000	
2	 H03	-12.047	202.678	116.743	 H	1	UNK0	0.000	
3	 H07	-8.856	206.606	116.646	 H	1	UNK0	0.000	
4	 H08	-7.834	208.753	111.053	 H	1	UNK0	0.000	
5	 H13	-13.270	208.103	114.021	 H	1	UNK0	0.000	
6	 H09	-7.206	208.707	112.685	 H	1	UNK0	0.000	
7	 H14	-17.371	205.751	115.201	 H	1	UNK0	0.000	
8	 H11	-13.496	206.809	117.034	 H	1	UNK0	0.000	
9	 H02	-12.685	204.564	118.828	 H	1	UNK0	0.000	
10	 H12	-14.565	205.724	117.919	 H	1	UNK0	0.000	
11	 H01	-13.797	203.857	116.334	 H	1	UNK0	0.000	
12	 H15	-15.187	204.200	115.005	 H	1	UNK0	0.000	
13	 H10	-11.601	206.404	110.890	 H	1	UNK0	0.000	
14	 H16	-13.179	204.554	114.043	 H	1	UNK0	0.000	
15	 H05	-9.611	203.667	117.627	 H	1	UNK0	0.000	
16	 H04	-10.914	206.150	117.727	 H	1	UNK0	0.000	
17	  C1	-13.172	204.703	116.620	C.3	1	UNK0	0.000	
18	  O1	-12.285	205.081	115.551	O.3	1	UNK0	0.000	
19	  C2	-12.304	204.337	117.833	C.3	1	UNK0	0.000	
20	  O2	-12.070	202.899	117.677	O.3	1	UNK0	0.000	
21	  C3	-10.980	205.098	117.451	C.3	1	UNK0	0.000	
22	  O3	-9.892	204.429	118.138	O.3	1	UNK0	0.000	
23	  C4	-10.941	204.924	115.904	C.3	1	UNK0	0.000	
24	  N1	-10.309	206.041	115.179	N.pl3	1	UNK0	0.000	
25	  C5	-9.176	206.665	115.606	C.2	1	UNK0	0.000	
26	  N2	-8.504	207.321	114.745	N.2	1	UNK0	0.000	
27	  C6	-9.208	207.201	113.642	C.2	1	UNK0	0.000	
28	  C7	-8.949	207.712	112.389	C.2	1	UNK0	0.000	
29	  N3	-7.914	208.449	112.012	N.pl3	1	UNK0	0.000	
30	  N4	-9.841	207.401	111.421	N.2	1	UNK0	0.000	
31	  C8	-10.925	206.617	111.718	C.2	1	UNK0	0.000	
32	  N5	-11.252	206.087	112.888	N.2	1	UNK0	0.000	
33	  C9	-10.336	206.422	113.832	C.2	1	UNK0	0.000	
34	 C10	-14.075	205.888	116.960	C.3	1	UNK0	0.000	
35	  O4	-15.075	205.985	115.894	O.3	1	UNK0	0.000	
36	  P1	-14.853	207.255	114.992	P.3	1	UNK0	0.000	
37	  O5	-13.506	207.219	114.312	O.3	1	UNK0	0.000	
38	  O6	-14.911	208.524	115.751	O.co2	1	UNK0	0.000	
39	  O7	-15.958	207.126	113.812	O.3	1	UNK0	0.000	
40	  P2	-16.900	205.929	113.246	P.3	1	UNK0	0.000	
41	  O8	-18.009	206.478	112.488	O.co2	1	UNK0	0.000	
42	  O9	-17.381	205.177	114.432	O.3	1	UNK0	0.000	
43	 O10	-15.838	205.064	112.439	O.3	1	UNK0	0.000	
44	  P3	-14.849	203.984	113.041	P.3	1	UNK0	0.000	
45	 O11	-15.250	203.489	114.364	O.3	1	UNK0	0.000	
46	 O12	-14.718	202.869	112.070	O.co2	1	UNK0	0.000	
47	 O13	-13.481	204.582	113.132	O.3	1	UNK0	0.000	
@<TRIPOS>BOND
1 11 17 1
2 17 18 1
3 17 19 1
4 17 34 1
5 18 23 1
6 9 19 1
7 19 20 1
8 19 21 1
9 2 20 1
10 16 21 1
11 21 22 1
12 21 23 1
13 15 22 1
14 1 23 1
15 23 24 1
16 24 25 1
17 24 33 1
18 3 25 1
19 25 26 2
20 26 27 1
21 27 28 2
22 27 33 1
23 28 29 1
24 28 30 1
25 4 29 1
26 6 29 1
27 30 31 2
28 13 31 1
29 31 32 1
30 32 33 2
31 8 34 1
32 10 34 1
33 34 35 1
34 35 36 1
35 36 37 1
36 36 38 2
37 36 39 1
38 5 37 1
39 39 40 1
40 40 41 2
41 40 42 1
42 40 43 1
43 7 42 1
44 43 44 1
45 44 45 1
46 44 46 2
47 44 47 1
48 12 45 1
49 14 47 1
@<TRIPOS>SUBSTRUCTURE
1	UNK0	1	GROUP	1 ****	UNK
