# created with PyMOL 2.5.0
@<TRIPOS>MOLECULE
cocrystal/docking_cocrystal/1b38_ATP_LIG.pdb
31 33 1                 
SMALL
USER_CHARGES
@<TRIPOS>ATOM
1	  C1	-15.717	207.041	114.378	C.3	1	UNK0	0.000	
2	  O1	-15.264	207.073	113.019	O.3	1	UNK0	0.000	
3	  C2	-15.874	205.561	114.744	C.3	1	UNK0	0.000	
4	  O2	-17.250	205.197	114.528	O.3	1	UNK0	0.000	
5	  C3	-14.994	204.836	113.666	C.3	1	UNK0	0.000	
6	  O3	-15.737	203.640	113.313	O.3	1	UNK0	0.000	
7	  C4	-15.126	205.800	112.468	C.3	1	UNK0	0.000	
8	  N1	-13.918	205.839	111.649	N.pl3	1	UNK0	0.000	
9	  C5	-13.960	206.088	110.320	C.2	1	UNK0	0.000	
10	  N2	-12.863	206.468	109.820	N.2	1	UNK0	0.000	
11	  C6	-12.000	206.504	110.814	C.2	1	UNK0	0.000	
12	  C7	-10.640	206.827	110.819	C.2	1	UNK0	0.000	
13	  N3	-9.874	207.205	109.811	N.pl3	1	UNK0	0.000	
14	  N4	-10.042	206.744	112.028	N.2	1	UNK0	0.000	
15	  C8	-10.746	206.317	113.106	C.2	1	UNK0	0.000	
16	  N5	-12.020	206.026	113.185	N.2	1	UNK0	0.000	
17	  C9	-12.605	206.102	111.983	C.2	1	UNK0	0.000	
18	 C10	-14.679	207.714	115.284	C.3	1	UNK0	0.000	
19	  O4	-15.080	207.290	116.602	O.3	1	UNK0	0.000	
20	  P1	-13.967	206.854	117.653	P.3	1	UNK0	0.000	
21	  O5	-13.890	207.942	118.699	O.co2	1	UNK0	0.000	
22	  O6	-12.747	206.520	116.965	O.co2	1	UNK0	0.000	
23	  O7	-14.641	205.647	118.526	O.3	1	UNK0	0.000	
24	  P2	-14.100	205.088	119.932	P.3	1	UNK0	0.000	
25	  O8	-12.976	205.959	120.335	O.co2	1	UNK0	0.000	
26	  O9	-13.847	203.655	119.867	O.co2	1	UNK0	0.000	
27	 O10	-15.425	205.448	120.741	O.3	1	UNK0	0.000	
28	  P3	-15.788	206.762	121.536	P.3	1	UNK0	0.000	
29	 O11	-17.047	207.343	121.090	O.co2	1	UNK0	0.000	
30	 O12	-15.684	206.520	122.999	O.co2	1	UNK0	0.000	
31	 O13	-14.721	207.774	121.163	O.co2	1	UNK0	0.000	
@<TRIPOS>BOND
1 1 2 1
2 1 3 1
3 1 18 1
4 2 7 1
5 3 4 1
6 3 5 1
7 5 6 1
8 5 7 1
9 7 8 1
10 8 9 1
11 8 17 1
12 9 10 2
13 10 11 1
14 11 12 2
15 11 17 1
16 12 13 1
17 12 14 1
18 14 15 2
19 15 16 1
20 16 17 2
21 18 19 1
22 19 20 1
23 20 21 1
24 20 22 2
25 20 23 1
26 23 24 1
27 24 25 2
28 24 26 1
29 24 27 1
30 27 28 1
31 28 29 1
32 28 30 2
33 28 31 1
@<TRIPOS>SUBSTRUCTURE
1	UNK0	1	GROUP	1 ****	UNK
