# created with PyMOL 2.5.0
@<TRIPOS>MOLECULE
cocrystal/docking_cocrystal/1e1x_NW1_LIG.pdb
18 19 1                 
SMALL
USER_CHARGES
@<TRIPOS>ATOM
1	  N1	-15.257	205.945	116.665	N.2	1	UNK0	0.000	
2	  C1	-15.649	205.060	115.709	C.2	1	UNK0	0.000	
3	  C2	-15.640	205.425	114.260	C.2	1	UNK0	0.000	
4	  N2	-16.113	204.392	113.358	N.2	1	UNK0	0.000	
5	  O1	-16.114	204.641	112.141	O.3	1	UNK0	0.000	
6	  C3	-15.248	206.663	113.959	C.2	1	UNK0	0.000	
7	  N3	-15.218	207.105	112.736	N.2	1	UNK0	0.000	
8	  N4	-14.832	207.523	115.077	N.2	1	UNK0	0.000	
9	  C4	-14.850	207.226	116.304	C.2	1	UNK0	0.000	
10	  N5	-14.503	208.031	117.275	N.pl3	1	UNK0	0.000	
11	  O2	-16.074	203.801	116.138	O.3	1	UNK0	0.000	
12	  C5	-15.706	203.464	117.503	C.3	1	UNK0	0.000	
13	  C6	-16.605	202.285	117.884	C.3	1	UNK0	0.000	
14	  C7	-15.841	200.947	117.940	C.3	1	UNK0	0.000	
15	  C8	-16.850	199.794	118.222	C.3	1	UNK0	0.000	
16	  C9	-17.568	200.078	119.586	C.3	1	UNK0	0.000	
17	 C10	-18.419	201.365	119.397	C.3	1	UNK0	0.000	
18	 C11	-17.410	202.542	119.189	C.3	1	UNK0	0.000	
@<TRIPOS>BOND
1 1 2 2
2 1 9 1
3 2 3 1
4 2 11 1
5 3 4 2
6 3 6 1
7 4 5 1
8 6 7 2
9 6 8 1
10 8 9 2
11 9 10 1
12 11 12 1
13 12 13 1
14 13 14 1
15 13 18 1
16 14 15 1
17 15 16 1
18 16 17 1
19 17 18 1
@<TRIPOS>SUBSTRUCTURE
1	UNK0	1	GROUP	1 ****	UNK
