# created with PyMOL 2.5.0
@<TRIPOS>MOLECULE
cocrystal/docking_cocrystal/1fin_ATP_LIG.pdb
31 33 1                 
SMALL
USER_CHARGES
@<TRIPOS>ATOM
1	  C1	-10.615	205.671	116.821	C.3	1	UNK0	0.000	
2	  O1	-11.429	205.001	115.797	O.3	1	UNK0	0.000	
3	  C2	-10.225	206.967	116.107	C.3	1	UNK0	0.000	
4	  O2	-9.145	207.670	116.733	O.3	1	UNK0	0.000	
5	  C3	-9.887	206.468	114.697	C.3	1	UNK0	0.000	
6	  O3	-8.517	206.221	114.413	O.3	1	UNK0	0.000	
7	  C4	-10.703	205.180	114.572	C.3	1	UNK0	0.000	
8	  N1	-11.486	205.351	113.353	N.pl3	1	UNK0	0.000	
9	  C5	-12.778	204.926	113.202	C.2	1	UNK0	0.000	
10	  N2	-13.330	205.273	112.051	N.2	1	UNK0	0.000	
11	  C6	-12.341	206.024	111.421	C.2	1	UNK0	0.000	
12	  C7	-12.309	206.663	110.158	C.2	1	UNK0	0.000	
13	  N3	-13.356	206.634	109.320	N.pl3	1	UNK0	0.000	
14	  N4	-11.171	207.333	109.834	N.2	1	UNK0	0.000	
15	  C8	-10.149	207.347	110.711	C.2	1	UNK0	0.000	
16	  N5	-10.066	206.786	111.923	N.2	1	UNK0	0.000	
17	  C9	-11.205	206.120	112.228	C.2	1	UNK0	0.000	
18	 C10	-11.115	205.802	118.274	C.3	1	UNK0	0.000	
19	  O4	-12.550	205.813	118.502	O.3	1	UNK0	0.000	
20	  P1	-13.659	206.749	118.039	P.3	1	UNK0	0.000	
21	  O5	-13.525	208.075	118.732	O.co2	1	UNK0	0.000	
22	  O6	-15.017	206.095	118.086	O.co2	1	UNK0	0.000	
23	  O7	-13.861	206.428	116.434	O.3	1	UNK0	0.000	
24	  P2	-14.826	207.412	115.541	P.3	1	UNK0	0.000	
25	  O8	-14.145	207.676	114.221	O.co2	1	UNK0	0.000	
26	  O9	-15.255	208.480	116.519	O.co2	1	UNK0	0.000	
27	 O10	-15.936	206.404	114.814	O.3	1	UNK0	0.000	
28	  P3	-16.398	205.940	113.266	P.3	1	UNK0	0.000	
29	 O11	-17.872	206.298	113.207	O.co2	1	UNK0	0.000	
30	 O12	-16.046	204.463	113.226	O.co2	1	UNK0	0.000	
31	 O13	-15.636	206.793	112.266	O.co2	1	UNK0	0.000	
@<TRIPOS>BOND
1 1 2 1
2 1 3 1
3 1 18 1
4 2 7 1
5 3 4 1
6 3 5 1
7 5 6 1
8 5 7 1
9 7 8 1
10 8 9 1
11 8 17 1
12 9 10 2
13 10 11 1
14 11 12 2
15 11 17 1
16 12 13 1
17 12 14 1
18 14 15 2
19 15 16 1
20 16 17 2
21 18 19 1
22 19 20 1
23 20 21 1
24 20 22 2
25 20 23 1
26 23 24 1
27 24 25 2
28 24 26 1
29 24 27 1
30 27 28 1
31 28 29 2
32 28 30 1
33 28 31 1
@<TRIPOS>SUBSTRUCTURE
1	UNK0	1	GROUP	1 ****	UNK
