# created with PyMOL 2.5.0
@<TRIPOS>MOLECULE
cocrystal/docking_cocrystal/1di8_DTQ_LIG.pdb
37 39 1                 
SMALL
USER_CHARGES
@<TRIPOS>ATOM
1	 H12	-15.567	205.720	114.698	 H	1	UNK0	0.000	
2	 H14	-11.215	206.282	116.605	 H	1	UNK0	0.000	
3	 H02	-14.834	205.161	112.407	 H	1	UNK0	0.000	
4	 H11	-15.204	205.322	116.395	 H	1	UNK0	0.000	
5	 H01	-13.109	207.277	108.440	 H	1	UNK0	0.000	
6	 H15	-10.324	204.888	117.263	 H	1	UNK0	0.000	
7	 H04	-8.812	207.395	110.139	 H	1	UNK0	0.000	
8	 H03	-9.799	205.760	113.360	 H	1	UNK0	0.000	
9	 H10	-16.042	204.140	115.363	 H	1	UNK0	0.000	
10	 H05	-9.940	208.941	112.960	 H	1	UNK0	0.000	
11	 H08	-6.638	206.273	111.610	 H	1	UNK0	0.000	
12	 H07	-5.331	206.825	113.738	 H	1	UNK0	0.000	
13	 H06	-6.287	208.498	115.432	 H	1	UNK0	0.000	
14	 H09	-8.612	210.704	114.726	 H	1	UNK0	0.000	
15	 H13	-9.668	205.789	115.876	 H	1	UNK0	0.000	
16	  N1	-11.322	207.258	109.619	N.2	1	UNK0	0.000	
17	  C1	-12.665	206.997	109.395	C.2	1	UNK0	0.000	
18	  N2	-13.459	206.384	110.360	N.2	1	UNK0	0.000	
19	  C2	-12.923	205.961	111.616	C.2	1	UNK0	0.000	
20	  C3	-11.418	206.193	111.904	C.2	1	UNK0	0.000	
21	  C4	-10.647	206.929	110.853	C.2	1	UNK0	0.000	
22	  C5	-13.778	205.321	112.624	C.2	1	UNK0	0.000	
23	  C6	-13.230	204.889	113.928	C.2	1	UNK0	0.000	
24	  C7	-11.752	205.027	114.191	C.2	1	UNK0	0.000	
25	  C8	-10.868	205.673	113.166	C.2	1	UNK0	0.000	
26	  N3	-9.286	207.291	111.024	N.pl3	1	UNK0	0.000	
27	  C9	-8.428	207.542	112.107	C.2	1	UNK0	0.000	
28	 C10	-8.950	208.507	113.101	C.2	1	UNK0	0.000	
29	 C11	-8.149	208.889	114.283	C.2	1	UNK0	0.000	
30	 C12	-6.848	208.255	114.530	C.2	1	UNK0	0.000	
31	 C13	-6.300	207.290	113.559	C.2	1	UNK0	0.000	
32	 C14	-7.066	206.955	112.345	C.2	1	UNK0	0.000	
33	  O1	-8.603	209.848	115.162	O.3	1	UNK0	0.000	
34	  O2	-14.022	204.374	114.985	O.3	1	UNK0	0.000	
35	 C15	-15.284	204.922	115.384	C.3	1	UNK0	0.000	
36	  O3	-11.279	204.563	115.456	O.3	1	UNK0	0.000	
37	 C16	-10.580	205.432	116.354	C.3	1	UNK0	0.000	
@<TRIPOS>BOND
1 16 17 1
2 16 21 2
3 5 17 1
4 17 18 2
5 18 19 1
6 19 20 1
7 19 22 2
8 20 21 1
9 20 25 2
10 21 26 1
11 3 22 1
12 22 23 1
13 23 24 2
14 23 34 1
15 24 25 1
16 24 36 1
17 8 25 1
18 7 26 1
19 26 27 1
20 27 28 1
21 27 32 2
22 10 28 1
23 28 29 2
24 29 30 1
25 29 33 1
26 13 30 1
27 30 31 2
28 12 31 1
29 31 32 1
30 11 32 1
31 14 33 1
32 34 35 1
33 1 35 1
34 4 35 1
35 9 35 1
36 36 37 1
37 2 37 1
38 6 37 1
39 15 37 1
@<TRIPOS>SUBSTRUCTURE
1	UNK0	1	GROUP	1 ****	UNK
