# created with PyMOL 2.5.0
@<TRIPOS>MOLECULE
cocrystal/docking_cocrystal/1e1v_CMG_LIG.pdb
18 20 1                 
SMALL
USER_CHARGES
@<TRIPOS>ATOM
1	  N1	-14.381	203.793	117.639	N.2	1	UNK0	0.000	
2	  C1	-14.351	203.667	118.960	C.3	1	UNK0	0.000	
3	  N2	-15.436	203.177	119.589	N.2	1	UNK0	0.000	
4	  C2	-16.522	202.806	118.922	C.2	1	UNK0	0.000	
5	  C3	-16.548	202.969	117.571	C.2	1	UNK0	0.000	
6	  C4	-15.447	203.491	116.897	C.2	1	UNK0	0.000	
7	  N3	-17.750	202.509	117.253	N.2	1	UNK0	0.000	
8	  C5	-18.537	202.103	118.307	C.2	1	UNK0	0.000	
9	  N4	-17.670	202.278	119.332	N.2	1	UNK0	0.000	
10	  N5	-13.344	203.886	119.842	N.3	1	UNK0	0.000	
11	  O1	-15.534	203.605	115.511	O.3	1	UNK0	0.000	
12	  C6	-15.578	205.022	115.168	C.3	1	UNK0	0.000	
13	  C7	-15.881	204.950	113.617	C.3	1	UNK0	0.000	
14	  C8	-15.545	206.368	113.044	C.3	1	UNK0	0.000	
15	  C9	-15.576	206.249	111.520	C.3	1	UNK0	0.000	
16	 C10	-14.131	205.752	111.281	C.3	1	UNK0	0.000	
17	 C11	-14.464	204.250	111.668	C.3	1	UNK0	0.000	
18	 C12	-14.494	204.436	113.214	C.3	1	UNK0	0.000	
@<TRIPOS>BOND
1 1 2 1
2 1 6 2
3 2 3 1
4 2 10 1
5 3 4 2
6 4 5 1
7 4 9 1
8 5 6 1
9 5 7 2
10 6 11 1
11 7 8 1
12 8 9 2
13 11 12 1
14 12 13 1
15 13 14 1
16 13 18 1
17 14 15 1
18 15 16 1
19 16 17 1
20 17 18 1
@<TRIPOS>SUBSTRUCTURE
1	UNK0	1	GROUP	1 ****	UNK
