# created with PyMOL 2.5.0
@<TRIPOS>MOLECULE
cocrystal/docking_cocrystal/1di8_DTQ_LIG.pdb
37 39 1                 
SMALL
USER_CHARGES
@<TRIPOS>ATOM
1	 H12	-18.595	205.917	111.594	 H	1	UNK0	0.000	
2	 H14	-15.914	204.729	116.337	 H	1	UNK0	0.000	
3	 H02	-16.226	206.010	110.435	 H	1	UNK0	0.000	
4	 H11	-17.968	206.709	113.060	 H	1	UNK0	0.000	
5	 H01	-12.033	207.560	108.644	 H	1	UNK0	0.000	
6	 H15	-14.761	203.378	116.459	 H	1	UNK0	0.000	
7	 H04	-9.914	205.166	112.356	 H	1	UNK0	0.000	
8	 H03	-12.717	204.505	113.905	 H	1	UNK0	0.000	
9	 H10	-19.201	205.433	113.195	 H	1	UNK0	0.000	
10	 H05	-9.630	208.322	112.939	 H	1	UNK0	0.000	
11	 H08	-10.541	204.661	115.308	 H	1	UNK0	0.000	
12	 H07	-9.880	205.891	117.451	 H	1	UNK0	0.000	
13	 H06	-9.013	208.303	117.329	 H	1	UNK0	0.000	
14	 H09	-8.525	210.055	115.961	 H	1	UNK0	0.000	
15	 H13	-14.222	204.954	115.833	 H	1	UNK0	0.000	
16	  N1	-11.333	206.752	110.500	N.2	1	UNK0	0.000	
17	  C1	-12.314	207.058	109.570	C.2	1	UNK0	0.000	
18	  N2	-13.651	206.738	109.791	N.2	1	UNK0	0.000	
19	  C2	-14.075	206.048	110.969	C.2	1	UNK0	0.000	
20	  C3	-13.012	205.647	112.023	C.2	1	UNK0	0.000	
21	  C4	-11.608	206.094	111.755	C.2	1	UNK0	0.000	
22	  C5	-15.490	205.725	111.186	C.2	1	UNK0	0.000	
23	  C6	-15.934	205.018	112.407	C.2	1	UNK0	0.000	
24	  C7	-14.905	204.543	113.401	C.2	1	UNK0	0.000	
25	  C8	-13.455	204.862	113.187	C.2	1	UNK0	0.000	
26	  N3	-10.554	205.878	112.678	N.pl3	1	UNK0	0.000	
27	  C9	-10.169	206.397	113.926	C.2	1	UNK0	0.000	
28	 C10	-9.661	207.787	113.888	C.2	1	UNK0	0.000	
29	 C11	-9.196	208.460	115.119	C.2	1	UNK0	0.000	
30	 C12	-9.304	207.782	116.417	C.2	1	UNK0	0.000	
31	 C13	-9.807	206.397	116.488	C.2	1	UNK0	0.000	
32	 C14	-10.209	205.699	115.255	C.2	1	UNK0	0.000	
33	  O1	-8.648	209.723	115.068	O.3	1	UNK0	0.000	
34	  O2	-17.293	204.780	112.732	O.3	1	UNK0	0.000	
35	 C15	-18.326	205.769	112.639	C.3	1	UNK0	0.000	
36	  O3	-15.393	203.838	114.544	O.3	1	UNK0	0.000	
37	 C16	-15.053	204.249	115.873	C.3	1	UNK0	0.000	
@<TRIPOS>BOND
1 16 17 1
2 16 21 2
3 5 17 1
4 17 18 2
5 18 19 1
6 19 20 1
7 19 22 2
8 20 21 1
9 20 25 2
10 21 26 1
11 3 22 1
12 22 23 1
13 23 24 2
14 23 34 1
15 24 25 1
16 24 36 1
17 8 25 1
18 7 26 1
19 26 27 1
20 27 28 1
21 27 32 2
22 10 28 1
23 28 29 2
24 29 30 1
25 29 33 1
26 13 30 1
27 30 31 2
28 12 31 1
29 31 32 1
30 11 32 1
31 14 33 1
32 34 35 1
33 1 35 1
34 4 35 1
35 9 35 1
36 36 37 1
37 2 37 1
38 6 37 1
39 15 37 1
@<TRIPOS>SUBSTRUCTURE
1	UNK0	1	GROUP	1 ****	UNK
