# created with PyMOL 2.5.0
@<TRIPOS>MOLECULE
cocrystal/docking_cocrystal/1b39_ATP_LIG.pdb
47 49 1                 
SMALL
USER_CHARGES
@<TRIPOS>ATOM
1	 H06	-9.397	205.380	114.076	 H	1	UNK0	0.000	
2	 H03	-8.609	205.585	115.996	 H	1	UNK0	0.000	
3	 H07	-12.926	204.258	113.953	 H	1	UNK0	0.000	
4	 H08	-14.049	207.044	108.669	 H	1	UNK0	0.000	
5	 H13	-13.911	208.528	117.115	 H	1	UNK0	0.000	
6	 H09	-14.758	206.047	109.919	 H	1	UNK0	0.000	
7	 H14	-15.815	209.070	115.014	 H	1	UNK0	0.000	
8	 H11	-12.578	203.965	117.754	 H	1	UNK0	0.000	
9	 H02	-10.740	206.911	117.439	 H	1	UNK0	0.000	
10	 H12	-13.131	204.805	116.308	 H	1	UNK0	0.000	
11	 H01	-10.384	204.129	117.136	 H	1	UNK0	0.000	
12	 H15	-15.533	207.543	112.305	 H	1	UNK0	0.000	
13	 H10	-9.821	207.899	109.733	 H	1	UNK0	0.000	
14	 H16	-18.303	206.325	111.892	 H	1	UNK0	0.000	
15	 H05	-9.488	208.270	115.712	 H	1	UNK0	0.000	
16	 H04	-11.636	207.186	114.993	 H	1	UNK0	0.000	
17	  C1	-10.985	204.835	116.563	C.3	1	UNK0	0.000	
18	  O1	-11.029	204.474	115.171	O.3	1	UNK0	0.000	
19	  C2	-10.380	206.244	116.656	C.3	1	UNK0	0.000	
20	  O2	-8.942	206.001	116.794	O.3	1	UNK0	0.000	
21	  C3	-10.657	206.749	115.191	C.3	1	UNK0	0.000	
22	  O3	-9.684	207.785	114.907	O.3	1	UNK0	0.000	
23	  C4	-10.449	205.451	114.356	C.3	1	UNK0	0.000	
24	  N1	-11.281	205.363	113.144	N.pl3	1	UNK0	0.000	
25	  C5	-12.559	204.891	113.145	C.2	1	UNK0	0.000	
26	  N2	-13.308	205.215	112.168	N.2	1	UNK0	0.000	
27	  C6	-12.522	205.928	111.394	C.2	1	UNK0	0.000	
28	  C7	-12.809	206.539	110.193	C.2	1	UNK0	0.000	
29	  N3	-13.964	206.544	109.542	N.pl3	1	UNK0	0.000	
30	  N4	-11.803	207.241	109.624	N.2	1	UNK0	0.000	
31	  C8	-10.585	207.314	110.245	C.2	1	UNK0	0.000	
32	  N5	-10.220	206.761	111.394	N.2	1	UNK0	0.000	
33	  C9	-11.254	206.065	111.932	C.2	1	UNK0	0.000	
34	 C10	-12.407	204.837	117.123	C.3	1	UNK0	0.000	
35	  O4	-12.565	206.076	117.888	O.3	1	UNK0	0.000	
36	  P1	-14.040	206.620	117.829	P.3	1	UNK0	0.000	
37	  O5	-14.078	208.122	117.969	O.3	1	UNK0	0.000	
38	  O6	-14.905	206.073	118.899	O.co2	1	UNK0	0.000	
39	  O7	-14.545	206.293	116.323	O.3	1	UNK0	0.000	
40	  P2	-15.116	207.178	115.086	P.3	1	UNK0	0.000	
41	  O8	-14.037	207.531	114.182	O.co2	1	UNK0	0.000	
42	  O9	-15.733	208.388	115.685	O.3	1	UNK0	0.000	
43	 O10	-16.241	206.211	114.515	O.3	1	UNK0	0.000	
44	  P3	-16.627	206.010	112.993	P.3	1	UNK0	0.000	
45	 O11	-15.679	206.627	112.056	O.3	1	UNK0	0.000	
46	 O12	-16.771	204.557	112.728	O.co2	1	UNK0	0.000	
47	 O13	-17.990	206.583	112.762	O.3	1	UNK0	0.000	
@<TRIPOS>BOND
1 11 17 1
2 17 18 1
3 17 19 1
4 17 34 1
5 18 23 1
6 9 19 1
7 19 20 1
8 19 21 1
9 2 20 1
10 16 21 1
11 21 22 1
12 21 23 1
13 15 22 1
14 1 23 1
15 23 24 1
16 24 25 1
17 24 33 1
18 3 25 1
19 25 26 2
20 26 27 1
21 27 28 2
22 27 33 1
23 28 29 1
24 28 30 1
25 4 29 1
26 6 29 1
27 30 31 2
28 13 31 1
29 31 32 1
30 32 33 2
31 8 34 1
32 10 34 1
33 34 35 1
34 35 36 1
35 36 37 1
36 36 38 2
37 36 39 1
38 5 37 1
39 39 40 1
40 40 41 2
41 40 42 1
42 40 43 1
43 7 42 1
44 43 44 1
45 44 45 1
46 44 46 2
47 44 47 1
48 12 45 1
49 14 47 1
@<TRIPOS>SUBSTRUCTURE
1	UNK0	1	GROUP	1 ****	UNK
