# created with PyMOL 2.5.0
@<TRIPOS>MOLECULE
cocrystal/docking_cocrystal/1ckp_PVB_LIG.pdb
18 20 1                 
SMALL
USER_CHARGES
@<TRIPOS>ATOM
1	  N1	-12.849	206.386	109.871	N.2	1	UNK0	0.000	
2	  C1	-8.764	208.072	112.728	C.3	1	UNK0	0.000	
3	  N2	-9.933	207.129	112.598	N.pl3	1	UNK0	0.000	
4	  C2	-10.851	206.992	111.535	C.2	1	UNK0	0.000	
5	  N3	-10.880	207.693	110.363	N.2	1	UNK0	0.000	
6	  C3	-11.889	207.346	109.580	C.2	1	UNK0	0.000	
7	  C4	-12.837	205.666	111.057	C.2	1	UNK0	0.000	
8	  C5	-11.745	205.990	111.972	C.2	1	UNK0	0.000	
9	  N4	-11.419	205.508	113.200	N.2	1	UNK0	0.000	
10	  C6	-10.342	206.196	113.569	C.2	1	UNK0	0.000	
11	  N5	-13.825	204.710	111.330	N.pl3	1	UNK0	0.000	
12	  C7	-15.004	205.116	112.085	C.2	1	UNK0	0.000	
13	  C8	-15.071	204.835	113.450	C.2	1	UNK0	0.000	
14	  C9	-16.184	205.220	114.199	C.2	1	UNK0	0.000	
15	 C10	-17.244	205.892	113.586	C.2	1	UNK0	0.000	
16	 C11	-17.187	206.179	112.218	C.2	1	UNK0	0.000	
17	 Cl1	-18.486	207.008	111.457	Cl	1	UNK0	0.000	
18	 C12	-16.068	205.792	111.469	C.2	1	UNK0	0.000	
@<TRIPOS>BOND
1 1 6 1
2 1 7 2
3 2 3 1
4 3 4 1
5 3 10 1
6 4 5 1
7 4 8 2
8 5 6 2
9 7 8 1
10 7 11 1
11 8 9 1
12 9 10 2
13 11 12 1
14 12 13 2
15 12 18 1
16 13 14 1
17 14 15 2
18 15 16 1
19 16 17 1
20 16 18 2
@<TRIPOS>SUBSTRUCTURE
1	UNK0	1	GROUP	1 ****	UNK
