# created with PyMOL 2.5.0
@<TRIPOS>MOLECULE
cocrystal/docking_cocrystal/1dm2_HMD_LIG.pdb
29 31 1                 
SMALL
USER_CHARGES
@<TRIPOS>ATOM
1	 H06	-15.887	206.152	111.250	 H	1	UNK0	0.000	
2	 H04	-13.655	207.626	108.697	 H	1	UNK0	0.000	
3	 H05	-17.887	206.159	111.917	 H	1	UNK0	0.000	
4	 H01	-14.407	204.712	117.348	 H	1	UNK0	0.000	
5	 H09	-13.172	203.874	114.556	 H	1	UNK0	0.000	
6	 H10	-11.856	205.085	114.300	 H	1	UNK0	0.000	
7	 H07	-12.486	205.454	116.466	 H	1	UNK0	0.000	
8	 H02	-14.484	206.589	110.753	 H	1	UNK0	0.000	
9	 H08	-13.500	206.658	115.574	 H	1	UNK0	0.000	
10	 H03	-11.931	207.735	108.424	 H	1	UNK0	0.000	
11	 Br1	-19.008	206.292	112.062	Br	1	UNK0	0.000	
12	  O1	-16.697	204.337	116.479	O.2	1	UNK0	0.000	
13	  O2	-10.588	205.634	112.641	O.2	1	UNK0	0.000	
14	  N1	-17.329	205.499	114.118	N.2	1	UNK0	0.000	
15	  N2	-14.513	205.022	116.393	N.pl3	1	UNK0	0.000	
16	  N3	-11.279	206.608	110.676	N.2	1	UNK0	0.000	
17	  N4	-13.502	206.497	110.970	N.pl3	1	UNK0	0.000	
18	  N5	-12.709	207.459	109.007	N.pl3	1	UNK0	0.000	
19	  C1	-17.380	205.874	112.838	C.3	1	UNK0	0.000	
20	  C2	-16.137	205.893	112.279	C.2	1	UNK0	0.000	
21	  C3	-15.232	205.509	113.305	C.2	1	UNK0	0.000	
22	  C4	-16.042	205.262	114.455	C.2	1	UNK0	0.000	
23	  C5	-15.768	204.846	115.839	C.2	1	UNK0	0.000	
24	  C6	-13.312	205.603	115.770	C.3	1	UNK0	0.000	
25	  C7	-12.923	204.932	114.465	C.3	1	UNK0	0.000	
26	  C8	-13.686	205.478	113.262	C.2	1	UNK0	0.000	
27	  C9	-12.979	205.950	112.151	C.2	1	UNK0	0.000	
28	 C10	-11.486	206.029	111.882	C.2	1	UNK0	0.000	
29	 C11	-12.488	206.880	110.172	C.2	1	UNK0	0.000	
@<TRIPOS>BOND
1 11 19 1
2 12 23 2
3 13 28 2
4 14 19 1
5 14 22 2
6 4 15 1
7 15 23 1
8 15 24 1
9 16 28 1
10 16 29 2
11 8 17 1
12 17 27 1
13 17 29 1
14 2 18 1
15 10 18 1
16 18 29 1
17 3 19 1
18 19 20 1
19 1 20 1
20 20 21 2
21 21 22 1
22 21 26 1
23 22 23 1
24 7 24 1
25 9 24 1
26 24 25 1
27 5 25 1
28 6 25 1
29 25 26 1
30 26 27 2
31 27 28 1
@<TRIPOS>SUBSTRUCTURE
1	UNK0	1	GROUP	1 ****	UNK
