# created with PyMOL 2.5.0
@<TRIPOS>MOLECULE
cocrystal/docking_cocrystal/1aq1_STU_LIG.pdb
59 66 1                 
SMALL
USER_CHARGES
@<TRIPOS>ATOM
1	 H15	-17.418	205.506	111.914	 H	1	UNK0	0.000	
2	 H21	-15.745	201.945	118.124	 H	1	UNK0	0.000	
3	 H18	-13.853	203.222	118.901	 H	1	UNK0	0.000	
4	 H24	-11.084	202.992	116.305	 H	1	UNK0	0.000	
5	 H09	-10.079	207.393	119.232	 H	1	UNK0	0.000	
6	 H05	-12.238	205.026	118.818	 H	1	UNK0	0.000	
7	 H20	-14.878	202.747	116.792	 H	1	UNK0	0.000	
8	 H07	-13.540	207.718	119.267	 H	1	UNK0	0.000	
9	 H06	-12.086	208.549	118.664	 H	1	UNK0	0.000	
10	 H01	-15.499	207.124	115.841	 H	1	UNK0	0.000	
11	 H04	-14.726	205.894	118.749	 H	1	UNK0	0.000	
12	 H03	-16.097	205.232	116.812	 H	1	UNK0	0.000	
13	 H14	-16.617	205.812	114.245	 H	1	UNK0	0.000	
14	 H02	-14.702	204.407	116.074	 H	1	UNK0	0.000	
15	 H19	-16.392	203.444	117.416	 H	1	UNK0	0.000	
16	 H08	-11.929	207.022	119.565	 H	1	UNK0	0.000	
17	 H23	-11.719	202.908	117.966	 H	1	UNK0	0.000	
18	 H10	-7.698	207.918	119.355	 H	1	UNK0	0.000	
19	 H13	-7.736	207.581	112.937	 H	1	UNK0	0.000	
20	 H12	-7.405	207.744	115.074	 H	1	UNK0	0.000	
21	 H11	-6.306	208.092	117.257	 H	1	UNK0	0.000	
22	 H22	-10.521	204.151	117.533	 H	1	UNK0	0.000	
23	 H17	-13.492	206.294	110.376	 H	1	UNK0	0.000	
24	 H16	-15.833	205.725	110.004	 H	1	UNK0	0.000	
25	  O1	-13.759	207.355	116.889	O.3	1	UNK0	0.000	
26	  C1	-14.578	206.574	116.032	C.3	1	UNK0	0.000	
27	  C2	-15.013	205.244	116.700	C.3	1	UNK0	0.000	
28	  C3	-14.356	205.120	118.076	C.3	1	UNK0	0.000	
29	  C4	-12.816	205.292	117.933	C.3	1	UNK0	0.000	
30	  C5	-12.637	206.801	117.554	C.3	1	UNK0	0.000	
31	  C6	-12.542	207.577	118.854	C.3	1	UNK0	0.000	
32	  N1	-11.421	207.032	116.725	N.pl3	1	UNK0	0.000	
33	  C7	-11.536	206.956	115.313	C.2	1	UNK0	0.000	
34	  C8	-12.563	206.705	114.496	C.2	1	UNK0	0.000	
35	  C9	-12.418	206.651	113.076	C.2	1	UNK0	0.000	
36	 C10	-11.053	206.920	112.594	C.2	1	UNK0	0.000	
37	 C11	-10.052	207.166	113.399	C.2	1	UNK0	0.000	
38	 C12	-10.200	207.191	114.806	C.2	1	UNK0	0.000	
39	 C13	-9.342	207.425	115.904	C.2	1	UNK0	0.000	
40	 C14	-10.102	207.317	117.108	C.2	1	UNK0	0.000	
41	 C15	-9.497	207.485	118.315	C.2	1	UNK0	0.000	
42	 C16	-8.165	207.768	118.382	C.2	1	UNK0	0.000	
43	 C17	-7.372	207.871	117.201	C.2	1	UNK0	0.000	
44	 C18	-7.994	207.685	115.989	C.2	1	UNK0	0.000	
45	 C19	-8.751	207.368	112.601	C.2	1	UNK0	0.000	
46	  N2	-9.286	207.189	111.267	N.2	1	UNK0	0.000	
47	 C20	-10.595	206.915	111.168	C.2	1	UNK0	0.000	
48	  O2	-11.247	206.723	110.160	O.2	1	UNK0	0.000	
49	 C21	-13.663	206.320	112.506	C.2	1	UNK0	0.000	
50	 C22	-14.576	206.174	113.590	C.2	1	UNK0	0.000	
51	 C23	-15.933	205.897	113.401	C.2	1	UNK0	0.000	
52	 C24	-16.370	205.736	112.106	C.2	1	UNK0	0.000	
53	 C25	-15.471	205.868	111.022	C.2	1	UNK0	0.000	
54	 C26	-14.158	206.170	111.230	C.2	1	UNK0	0.000	
55	  N3	-13.913	206.367	114.751	N.pl3	1	UNK0	0.000	
56	  N4	-14.707	203.710	118.672	N.3	1	UNK0	0.000	
57	 C27	-15.482	202.908	117.685	C.3	1	UNK0	0.000	
58	  O3	-12.421	204.462	116.822	O.3	1	UNK0	0.000	
59	 C28	-11.377	203.577	117.177	C.3	1	UNK0	0.000	
@<TRIPOS>BOND
1 25 26 1
2 25 30 1
3 10 26 1
4 26 27 1
5 26 55 1
6 12 27 1
7 14 27 1
8 27 28 1
9 11 28 1
10 28 29 1
11 28 56 1
12 6 29 1
13 29 30 1
14 29 58 1
15 30 31 1
16 30 32 1
17 8 31 1
18 9 31 1
19 16 31 1
20 32 33 1
21 32 40 1
22 33 34 1
23 33 38 2
24 34 35 2
25 34 55 1
26 35 36 1
27 35 49 1
28 36 37 2
29 36 47 1
30 37 38 1
31 37 45 1
32 38 39 1
33 39 40 1
34 39 44 2
35 40 41 2
36 5 41 1
37 41 42 1
38 18 42 1
39 42 43 2
40 21 43 1
41 43 44 1
42 20 44 1
43 19 45 1
44 45 46 2
45 46 47 1
46 47 48 2
47 49 50 1
48 49 54 2
49 50 51 2
50 50 55 1
51 13 51 1
52 51 52 1
53 1 52 1
54 52 53 2
55 24 53 1
56 53 54 1
57 23 54 1
58 3 56 1
59 56 57 1
60 2 57 1
61 7 57 1
62 15 57 1
63 58 59 1
64 4 59 1
65 17 59 1
66 22 59 1
@<TRIPOS>SUBSTRUCTURE
1	UNK0	1	GROUP	1 ****	UNK
