# created with PyMOL 2.5.0
@<TRIPOS>MOLECULE
cocrystal/docking_cocrystal/1e1x_NW1_LIG.pdb
35 36 1                 
SMALL
USER_CHARGES
@<TRIPOS>ATOM
1	 H01	-14.436	208.977	117.586	 H	1	UNK0	0.000	
2	 H03	-14.115	202.538	119.624	 H	1	UNK0	0.000	
3	 H02	-13.757	208.865	118.442	 H	1	UNK0	0.000	
4	 H08	-15.874	206.543	113.990	 H	1	UNK0	0.000	
5	 H07	-15.532	203.667	113.075	 H	1	UNK0	0.000	
6	 H06	-13.616	204.353	115.081	 H	1	UNK0	0.000	
7	 H04	-13.408	203.586	120.835	 H	1	UNK0	0.000	
8	 H09	-17.084	205.249	114.124	 H	1	UNK0	0.000	
9	 H16	-13.154	204.237	112.632	 H	1	UNK0	0.000	
10	 H11	-17.080	204.977	111.633	 H	1	UNK0	0.000	
11	 H14	-13.627	205.482	110.501	 H	1	UNK0	0.000	
12	 H13	-15.782	206.701	110.254	 H	1	UNK0	0.000	
13	 H12	-15.023	207.285	111.733	 H	1	UNK0	0.000	
14	 H15	-14.932	204.342	110.804	 H	1	UNK0	0.000	
15	 H10	-17.491	206.645	112.071	 H	1	UNK0	0.000	
16	 H05	-14.823	203.086	115.109	 H	1	UNK0	0.000	
17	 H17	-13.496	205.933	113.024	 H	1	UNK0	0.000	
18	  N1	-14.615	204.244	117.909	N.2	1	UNK0	0.000	
19	  C1	-14.858	205.272	117.053	C.2	1	UNK0	0.000	
20	  C2	-14.495	206.678	117.401	C.2	1	UNK0	0.000	
21	  N2	-14.843	207.674	116.405	N.2	1	UNK0	0.000	
22	  O1	-14.551	208.858	116.641	O.3	1	UNK0	0.000	
23	  C3	-13.939	206.873	118.598	C.2	1	UNK0	0.000	
24	  N3	-13.598	208.054	119.023	N.2	1	UNK0	0.000	
25	  N4	-13.709	205.681	119.428	N.2	1	UNK0	0.000	
26	  C4	-14.026	204.492	119.147	C.2	1	UNK0	0.000	
27	  N5	-13.835	203.460	119.928	N.pl3	1	UNK0	0.000	
28	  O2	-15.477	204.961	115.840	O.3	1	UNK0	0.000	
29	  C5	-14.678	204.152	114.936	C.3	1	UNK0	0.000	
30	  C6	-15.116	204.566	113.529	C.3	1	UNK0	0.000	
31	  C7	-16.241	205.620	113.541	C.3	1	UNK0	0.000	
32	  C8	-16.699	205.896	112.078	C.3	1	UNK0	0.000	
33	  C9	-15.468	206.412	111.257	C.3	1	UNK0	0.000	
34	 C10	-14.447	205.243	111.179	C.3	1	UNK0	0.000	
35	 C11	-13.924	205.009	112.635	C.3	1	UNK0	0.000	
@<TRIPOS>BOND
1 18 19 2
2 18 26 1
3 19 20 1
4 19 28 1
5 20 21 2
6 20 23 1
7 21 22 1
8 1 22 1
9 23 24 2
10 23 25 1
11 3 24 1
12 25 26 2
13 26 27 1
14 2 27 1
15 7 27 1
16 28 29 1
17 6 29 1
18 16 29 1
19 29 30 1
20 5 30 1
21 30 31 1
22 30 35 1
23 4 31 1
24 8 31 1
25 31 32 1
26 10 32 1
27 15 32 1
28 32 33 1
29 12 33 1
30 13 33 1
31 33 34 1
32 11 34 1
33 14 34 1
34 34 35 1
35 9 35 1
36 17 35 1
@<TRIPOS>SUBSTRUCTURE
1	UNK0	1	GROUP	1 ****	UNK
