# created with PyMOL 2.5.0
@<TRIPOS>MOLECULE
cocrystal/docking_cocrystal/1dm2_HMD_LIG.pdb
29 31 1                 
SMALL
USER_CHARGES
@<TRIPOS>ATOM
1	 H06	-11.798	206.276	114.842	 H	1	UNK0	0.000	
2	 H04	-14.402	205.798	117.423	 H	1	UNK0	0.000	
3	 H05	-9.961	207.250	114.490	 H	1	UNK0	0.000	
4	 H01	-12.663	206.730	108.479	 H	1	UNK0	0.000	
5	 H09	-13.452	204.545	110.628	 H	1	UNK0	0.000	
6	 H10	-15.131	205.012	111.104	 H	1	UNK0	0.000	
7	 H07	-14.713	206.348	109.296	 H	1	UNK0	0.000	
8	 H02	-13.255	205.959	115.267	 H	1	UNK0	0.000	
9	 H08	-14.235	207.422	110.672	 H	1	UNK0	0.000	
10	 H03	-16.031	205.165	117.484	 H	1	UNK0	0.000	
11	 Br1	-8.981	207.825	114.549	Br	1	UNK0	0.000	
12	  O1	-10.398	206.922	109.465	O.2	1	UNK0	0.000	
13	  O2	-16.497	204.417	112.666	O.2	1	UNK0	0.000	
14	  N1	-10.242	207.286	112.141	N.2	1	UNK0	0.000	
15	  N2	-12.676	206.686	109.488	N.pl3	1	UNK0	0.000	
16	  N3	-16.218	204.785	114.918	N.2	1	UNK0	0.000	
17	  N4	-14.128	205.604	114.903	N.pl3	1	UNK0	0.000	
18	  N5	-15.213	205.424	116.952	N.pl3	1	UNK0	0.000	
19	  C1	-10.327	207.158	113.467	C.3	1	UNK0	0.000	
20	  C2	-11.477	206.520	113.829	C.2	1	UNK0	0.000	
21	  C3	-12.172	206.236	112.623	C.2	1	UNK0	0.000	
22	  C4	-11.340	206.738	111.576	C.2	1	UNK0	0.000	
23	  C5	-11.446	206.788	110.110	C.2	1	UNK0	0.000	
24	  C6	-14.002	206.521	110.105	C.3	1	UNK0	0.000	
25	  C7	-14.090	205.328	111.039	C.3	1	UNK0	0.000	
26	  C8	-13.586	205.634	112.447	C.2	1	UNK0	0.000	
27	  C9	-14.410	205.376	113.547	C.2	1	UNK0	0.000	
28	 C10	-15.814	204.804	113.627	C.2	1	UNK0	0.000	
29	 C11	-15.203	205.273	115.641	C.2	1	UNK0	0.000	
@<TRIPOS>BOND
1 11 19 1
2 12 23 2
3 13 28 2
4 14 19 1
5 14 22 2
6 4 15 1
7 15 23 1
8 15 24 1
9 16 28 1
10 16 29 2
11 8 17 1
12 17 27 1
13 17 29 1
14 2 18 1
15 10 18 1
16 18 29 1
17 3 19 1
18 19 20 1
19 1 20 1
20 20 21 2
21 21 22 1
22 21 26 1
23 22 23 1
24 7 24 1
25 9 24 1
26 24 25 1
27 5 25 1
28 6 25 1
29 25 26 1
30 26 27 2
31 27 28 1
@<TRIPOS>SUBSTRUCTURE
1	UNK0	1	GROUP	1 ****	UNK
