# created with PyMOL 2.5.0
@<TRIPOS>MOLECULE
cocrystal/docking_cocrystal/1di8_DTQ_LIG.pdb
37 39 1                 
SMALL
USER_CHARGES
@<TRIPOS>ATOM
1	 H12	-18.521	205.978	111.697	 H	1	UNK0	0.000	
2	 H14	-15.008	204.160	116.708	 H	1	UNK0	0.000	
3	 H02	-16.103	205.817	110.362	 H	1	UNK0	0.000	
4	 H11	-17.911	206.596	113.251	 H	1	UNK0	0.000	
5	 H01	-11.910	207.440	108.637	 H	1	UNK0	0.000	
6	 H15	-14.963	205.708	115.829	 H	1	UNK0	0.000	
7	 H04	-10.442	205.238	113.211	 H	1	UNK0	0.000	
8	 H03	-12.698	204.797	114.101	 H	1	UNK0	0.000	
9	 H10	-19.135	205.304	113.226	 H	1	UNK0	0.000	
10	 H05	-8.214	206.749	111.805	 H	1	UNK0	0.000	
11	 H08	-10.760	207.654	115.346	 H	1	UNK0	0.000	
12	 H07	-8.997	209.307	116.184	 H	1	UNK0	0.000	
13	 H06	-6.809	209.617	114.880	 H	1	UNK0	0.000	
14	 H09	-5.879	209.201	112.573	 H	1	UNK0	0.000	
15	 H13	-16.522	204.912	116.150	 H	1	UNK0	0.000	
16	  N1	-11.263	206.828	110.584	N.2	1	UNK0	0.000	
17	  C1	-12.211	207.002	109.588	C.2	1	UNK0	0.000	
18	  N2	-13.539	206.629	109.775	N.2	1	UNK0	0.000	
19	  C2	-13.985	206.016	110.987	C.2	1	UNK0	0.000	
20	  C3	-12.958	205.762	112.119	C.2	1	UNK0	0.000	
21	  C4	-11.567	206.261	111.877	C.2	1	UNK0	0.000	
22	  C5	-15.392	205.635	111.167	C.2	1	UNK0	0.000	
23	  C6	-15.859	205.008	112.422	C.2	1	UNK0	0.000	
24	  C7	-14.858	204.673	113.498	C.2	1	UNK0	0.000	
25	  C8	-13.417	205.052	113.323	C.2	1	UNK0	0.000	
26	  N3	-10.550	206.179	112.862	N.pl3	1	UNK0	0.000	
27	  C9	-9.653	207.069	113.477	C.2	1	UNK0	0.000	
28	 C10	-8.379	207.266	112.750	C.2	1	UNK0	0.000	
29	 C11	-7.327	208.155	113.288	C.2	1	UNK0	0.000	
30	 C12	-7.564	208.920	114.518	C.2	1	UNK0	0.000	
31	 C13	-8.824	208.745	115.266	C.2	1	UNK0	0.000	
32	 C14	-9.848	207.810	114.769	C.2	1	UNK0	0.000	
33	  O1	-6.111	208.273	112.651	O.3	1	UNK0	0.000	
34	  O2	-17.219	204.724	112.704	O.3	1	UNK0	0.000	
35	 C15	-18.258	205.710	112.720	C.3	1	UNK0	0.000	
36	  O3	-15.366	204.039	114.674	O.3	1	UNK0	0.000	
37	 C16	-15.471	204.747	115.914	C.3	1	UNK0	0.000	
@<TRIPOS>BOND
1 16 17 1
2 16 21 2
3 5 17 1
4 17 18 2
5 18 19 1
6 19 20 1
7 19 22 2
8 20 21 1
9 20 25 2
10 21 26 1
11 3 22 1
12 22 23 1
13 23 24 2
14 23 34 1
15 24 25 1
16 24 36 1
17 8 25 1
18 7 26 1
19 26 27 1
20 27 28 1
21 27 32 2
22 10 28 1
23 28 29 2
24 29 30 1
25 29 33 1
26 13 30 1
27 30 31 2
28 12 31 1
29 31 32 1
30 11 32 1
31 14 33 1
32 34 35 1
33 1 35 1
34 4 35 1
35 9 35 1
36 36 37 1
37 2 37 1
38 6 37 1
39 15 37 1
@<TRIPOS>SUBSTRUCTURE
1	UNK0	1	GROUP	1 ****	UNK
