# created with PyMOL 2.5.0
@<TRIPOS>MOLECULE
cocrystal/docking_cocrystal/1e9h_INR_LIG.pdb
36 39 1                 
SMALL
USER_CHARGES
@<TRIPOS>ATOM
1	 H04	-16.723	205.365	111.957	 H	1	UNK0	0.000	
2	 H01	-10.737	206.509	112.371	 H	1	UNK0	0.000	
3	 H06	-6.470	207.514	111.036	 H	1	UNK0	0.000	
4	 H07	-7.879	207.029	115.893	 H	1	UNK0	0.000	
5	 H09	-4.770	207.754	112.898	 H	1	UNK0	0.000	
6	 H08	-5.464	207.511	115.300	 H	1	UNK0	0.000	
7	 H03	-12.978	205.823	114.154	 H	1	UNK0	0.000	
8	 H10	-17.528	204.427	114.201	 H	1	UNK0	0.000	
9	 H05	-15.542	205.939	109.805	 H	1	UNK0	0.000	
10	 H11	-15.114	205.669	116.544	 H	1	UNK0	0.000	
11	 H02	-13.179	206.608	108.802	 H	1	UNK0	0.000	
12	 H12	-15.360	203.287	114.126	 H	1	UNK0	0.000	
13	  C1	-11.464	206.570	111.561	C.3	1	UNK0	0.000	
14	  C2	-11.611	206.767	110.100	C.2	1	UNK0	0.000	
15	  C3	-12.878	206.187	111.995	C.2	1	UNK0	0.000	
16	  O1	-10.690	207.092	109.350	O.2	1	UNK0	0.000	
17	  N1	-12.842	206.542	109.752	N.pl3	1	UNK0	0.000	
18	  C4	-13.611	206.212	110.793	C.2	1	UNK0	0.000	
19	  C5	-13.533	205.852	113.216	C.2	1	UNK0	0.000	
20	  C6	-14.934	205.554	113.185	C.2	1	UNK0	0.000	
21	  C7	-15.656	205.589	111.963	C.2	1	UNK0	0.000	
22	  C8	-14.996	205.916	110.748	C.2	1	UNK0	0.000	
23	  C9	-8.114	207.143	112.440	C.2	1	UNK0	0.000	
24	 C10	-8.497	207.005	113.785	C.2	1	UNK0	0.000	
25	 C11	-6.766	207.412	112.080	C.2	1	UNK0	0.000	
26	  N2	-9.165	206.980	111.627	N.2	1	UNK0	0.000	
27	 C12	-7.567	207.134	114.854	C.2	1	UNK0	0.000	
28	 C13	-9.968	206.730	113.693	C.2	1	UNK0	0.000	
29	 C14	-6.209	207.406	114.511	C.2	1	UNK0	0.000	
30	 C15	-5.812	207.545	113.138	C.2	1	UNK0	0.000	
31	  O2	-10.695	206.552	114.648	O.2	1	UNK0	0.000	
32	 C16	-10.302	206.749	112.254	C.2	1	UNK0	0.000	
33	  S1	-15.715	205.148	114.725	S.3	1	UNK0	0.000	
34	  O3	-17.170	205.282	114.452	O.3	1	UNK0	0.000	
35	  O4	-15.324	206.120	115.723	O.3	1	UNK0	0.000	
36	  O5	-15.458	203.743	114.965	O.3	1	UNK0	0.000	
@<TRIPOS>BOND
1 2 13 1
2 13 14 1
3 13 15 1
4 13 32 1
5 14 16 2
6 14 17 1
7 15 18 2
8 15 19 1
9 11 17 1
10 17 18 1
11 18 22 1
12 7 19 1
13 19 20 2
14 20 21 1
15 20 33 1
16 1 21 1
17 21 22 2
18 9 22 1
19 23 24 1
20 23 25 2
21 23 26 1
22 24 27 2
23 24 28 1
24 3 25 1
25 25 30 1
26 26 32 2
27 4 27 1
28 27 29 1
29 28 31 2
30 28 32 1
31 6 29 1
32 29 30 2
33 5 30 1
34 33 34 1
35 33 35 1
36 33 36 1
37 8 34 1
38 10 35 1
39 12 36 1
@<TRIPOS>SUBSTRUCTURE
1	UNK0	1	GROUP	1 ****	UNK
