# created with PyMOL 2.5.0
@<TRIPOS>MOLECULE
cocrystal/docking_cocrystal/1e9h_INR_LIG.pdb
24 27 1                 
SMALL
USER_CHARGES
@<TRIPOS>ATOM
1	  C1	-14.862	205.244	113.317	C.3	1	UNK0	0.000	
2	  C2	-16.034	205.065	112.429	C.2	1	UNK0	0.000	
3	  C3	-13.804	205.814	112.372	C.2	1	UNK0	0.000	
4	  O1	-17.120	204.618	112.800	O.2	1	UNK0	0.000	
5	  N1	-15.733	205.451	111.227	N.pl3	1	UNK0	0.000	
6	  C4	-14.472	205.883	111.134	C.2	1	UNK0	0.000	
7	  C5	-12.447	206.236	112.468	C.2	1	UNK0	0.000	
8	  C6	-11.792	206.718	111.289	C.2	1	UNK0	0.000	
9	  C7	-12.480	206.776	110.048	C.2	1	UNK0	0.000	
10	  C8	-13.837	206.361	109.961	C.2	1	UNK0	0.000	
11	  C9	-15.104	203.532	116.372	C.2	1	UNK0	0.000	
12	 C10	-14.661	204.706	117.006	C.2	1	UNK0	0.000	
13	 C11	-15.403	202.359	117.116	C.2	1	UNK0	0.000	
14	  N2	-15.191	203.711	115.048	N.2	1	UNK0	0.000	
15	 C12	-14.481	204.783	118.416	C.2	1	UNK0	0.000	
16	 C13	-14.478	205.660	115.865	C.2	1	UNK0	0.000	
17	 C14	-14.776	203.613	119.178	C.2	1	UNK0	0.000	
18	 C15	-15.231	202.413	118.535	C.2	1	UNK0	0.000	
19	  O2	-14.094	206.806	115.981	O.2	1	UNK0	0.000	
20	 C16	-14.834	204.913	114.641	C.2	1	UNK0	0.000	
21	  S1	-10.100	207.229	111.447	S.3	1	UNK0	0.000	
22	  O3	-10.164	208.710	111.535	O.3	1	UNK0	0.000	
23	  O4	-9.381	206.851	110.250	O.3	1	UNK0	0.000	
24	  O5	-9.638	206.748	112.732	O.3	1	UNK0	0.000	
@<TRIPOS>BOND
1 1 2 1
2 1 3 1
3 1 20 1
4 2 4 2
5 2 5 1
6 3 6 2
7 3 7 1
8 5 6 1
9 6 10 1
10 7 8 2
11 8 9 1
12 8 21 1
13 9 10 2
14 11 12 1
15 11 13 2
16 11 14 1
17 12 15 2
18 12 16 1
19 13 18 1
20 14 20 2
21 15 17 1
22 16 19 2
23 16 20 1
24 17 18 2
25 21 22 1
26 21 23 1
27 21 24 1
@<TRIPOS>SUBSTRUCTURE
1	UNK0	1	GROUP	1 ****	UNK
