# created with PyMOL 2.5.0
@<TRIPOS>MOLECULE
cocrystal/docking_cocrystal/1e9h_INR_LIG.pdb
36 39 1                 
SMALL
USER_CHARGES
@<TRIPOS>ATOM
1	 H04	-11.966	207.141	109.159	 H	1	UNK0	0.000	
2	 H01	-14.532	205.209	114.356	 H	1	UNK0	0.000	
3	 H06	-15.751	201.451	116.623	 H	1	UNK0	0.000	
4	 H07	-14.133	205.699	118.894	 H	1	UNK0	0.000	
5	 H09	-15.450	201.531	119.137	 H	1	UNK0	0.000	
6	 H08	-14.654	203.631	120.261	 H	1	UNK0	0.000	
7	 H03	-11.918	206.193	113.420	 H	1	UNK0	0.000	
8	 H10	-10.112	209.087	110.653	 H	1	UNK0	0.000	
9	 H05	-14.375	206.409	109.014	 H	1	UNK0	0.000	
10	 H11	-9.306	207.611	109.668	 H	1	UNK0	0.000	
11	 H02	-16.378	205.428	110.450	 H	1	UNK0	0.000	
12	 H12	-9.407	205.819	112.663	 H	1	UNK0	0.000	
13	  C1	-14.862	205.244	113.317	C.3	1	UNK0	0.000	
14	  C2	-16.034	205.065	112.429	C.2	1	UNK0	0.000	
15	  C3	-13.804	205.814	112.372	C.2	1	UNK0	0.000	
16	  O1	-17.120	204.618	112.800	O.2	1	UNK0	0.000	
17	  N1	-15.733	205.451	111.227	N.pl3	1	UNK0	0.000	
18	  C4	-14.472	205.883	111.134	C.2	1	UNK0	0.000	
19	  C5	-12.447	206.236	112.468	C.2	1	UNK0	0.000	
20	  C6	-11.792	206.718	111.289	C.2	1	UNK0	0.000	
21	  C7	-12.480	206.776	110.048	C.2	1	UNK0	0.000	
22	  C8	-13.837	206.361	109.961	C.2	1	UNK0	0.000	
23	  C9	-15.104	203.532	116.372	C.2	1	UNK0	0.000	
24	 C10	-14.661	204.706	117.006	C.2	1	UNK0	0.000	
25	 C11	-15.403	202.359	117.116	C.2	1	UNK0	0.000	
26	  N2	-15.191	203.711	115.048	N.2	1	UNK0	0.000	
27	 C12	-14.481	204.783	118.416	C.2	1	UNK0	0.000	
28	 C13	-14.478	205.660	115.865	C.2	1	UNK0	0.000	
29	 C14	-14.776	203.613	119.178	C.2	1	UNK0	0.000	
30	 C15	-15.231	202.413	118.535	C.2	1	UNK0	0.000	
31	  O2	-14.094	206.806	115.981	O.2	1	UNK0	0.000	
32	 C16	-14.834	204.913	114.641	C.2	1	UNK0	0.000	
33	  S1	-10.100	207.229	111.447	S.3	1	UNK0	0.000	
34	  O3	-10.164	208.710	111.535	O.3	1	UNK0	0.000	
35	  O4	-9.381	206.851	110.250	O.3	1	UNK0	0.000	
36	  O5	-9.638	206.748	112.732	O.3	1	UNK0	0.000	
@<TRIPOS>BOND
1 2 13 1
2 13 14 1
3 13 15 1
4 13 32 1
5 14 16 2
6 14 17 1
7 15 18 2
8 15 19 1
9 11 17 1
10 17 18 1
11 18 22 1
12 7 19 1
13 19 20 2
14 20 21 1
15 20 33 1
16 1 21 1
17 21 22 2
18 9 22 1
19 23 24 1
20 23 25 2
21 23 26 1
22 24 27 2
23 24 28 1
24 3 25 1
25 25 30 1
26 26 32 2
27 4 27 1
28 27 29 1
29 28 31 2
30 28 32 1
31 6 29 1
32 29 30 2
33 5 30 1
34 33 34 1
35 33 35 1
36 33 36 1
37 8 34 1
38 10 35 1
39 12 36 1
@<TRIPOS>SUBSTRUCTURE
1	UNK0	1	GROUP	1 ****	UNK
