# created with PyMOL 2.5.0
@<TRIPOS>MOLECULE
cocrystal/docking_cocrystal/1b39_ATP_LIG.pdb
47 49 1                 
SMALL
USER_CHARGES
@<TRIPOS>ATOM
1	 H06	-8.426	207.015	112.075	 H	1	UNK0	0.000	
2	 H03	-6.663	209.816	113.216	 H	1	UNK0	0.000	
3	 H07	-10.639	205.459	114.541	 H	1	UNK0	0.000	
4	 H08	-15.526	205.463	110.928	 H	1	UNK0	0.000	
5	 H13	-10.953	209.003	118.338	 H	1	UNK0	0.000	
6	 H09	-14.937	204.994	112.507	 H	1	UNK0	0.000	
7	 H14	-14.352	209.247	117.299	 H	1	UNK0	0.000	
8	 H11	-9.182	208.802	116.486	 H	1	UNK0	0.000	
9	 H02	-8.268	209.863	114.781	 H	1	UNK0	0.000	
10	 H12	-8.348	207.395	117.141	 H	1	UNK0	0.000	
11	 H01	-7.113	207.332	115.250	 H	1	UNK0	0.000	
12	 H15	-14.538	204.717	113.325	 H	1	UNK0	0.000	
13	 H10	-12.227	207.410	108.678	 H	1	UNK0	0.000	
14	 H16	-16.293	205.897	113.258	 H	1	UNK0	0.000	
15	 H05	-9.314	210.392	112.283	 H	1	UNK0	0.000	
16	 H04	-10.336	208.828	113.552	 H	1	UNK0	0.000	
17	  C1	-8.137	207.611	115.001	C.3	1	UNK0	0.000	
18	  O1	-8.764	206.615	114.174	O.3	1	UNK0	0.000	
19	  C2	-8.153	208.935	114.222	C.3	1	UNK0	0.000	
20	  O2	-6.888	208.922	113.482	O.3	1	UNK0	0.000	
21	  C3	-9.320	208.633	113.210	C.3	1	UNK0	0.000	
22	  O3	-9.111	209.482	112.054	O.3	1	UNK0	0.000	
23	  C4	-9.111	207.118	112.917	C.3	1	UNK0	0.000	
24	  N1	-10.351	206.375	112.628	N.pl3	1	UNK0	0.000	
25	  C5	-11.081	205.736	113.584	C.2	1	UNK0	0.000	
26	  N2	-12.299	205.474	113.319	N.2	1	UNK0	0.000	
27	  C6	-12.451	205.910	112.089	C.2	1	UNK0	0.000	
28	  C7	-13.576	205.885	111.294	C.2	1	UNK0	0.000	
29	  N3	-14.775	205.410	111.601	N.pl3	1	UNK0	0.000	
30	  N4	-13.452	206.437	110.066	N.2	1	UNK0	0.000	
31	  C8	-12.256	206.980	109.679	C.2	1	UNK0	0.000	
32	  N5	-11.127	207.046	110.372	N.2	1	UNK0	0.000	
33	  C9	-11.291	206.481	111.596	C.2	1	UNK0	0.000	
34	 C10	-8.935	207.757	116.297	C.3	1	UNK0	0.000	
35	  O4	-10.149	206.953	116.146	O.3	1	UNK0	0.000	
36	  P1	-11.354	207.544	116.968	P.3	1	UNK0	0.000	
37	  O5	-11.086	208.969	117.387	O.3	1	UNK0	0.000	
38	  O6	-11.641	206.784	118.205	O.co2	1	UNK0	0.000	
39	  O7	-12.586	207.607	115.914	O.3	1	UNK0	0.000	
40	  P2	-14.203	207.673	116.043	P.3	1	UNK0	0.000	
41	  O8	-14.763	208.453	114.954	O.co2	1	UNK0	0.000	
42	  O9	-14.495	208.300	117.356	O.3	1	UNK0	0.000	
43	 O10	-14.569	206.126	116.077	O.3	1	UNK0	0.000	
44	  P3	-15.432	205.338	115.009	P.3	1	UNK0	0.000	
45	 O11	-14.655	204.377	114.215	O.3	1	UNK0	0.000	
46	 O12	-16.556	204.669	115.709	O.co2	1	UNK0	0.000	
47	 O13	-16.080	206.326	114.090	O.3	1	UNK0	0.000	
@<TRIPOS>BOND
1 11 17 1
2 17 18 1
3 17 19 1
4 17 34 1
5 18 23 1
6 9 19 1
7 19 20 1
8 19 21 1
9 2 20 1
10 16 21 1
11 21 22 1
12 21 23 1
13 15 22 1
14 1 23 1
15 23 24 1
16 24 25 1
17 24 33 1
18 3 25 1
19 25 26 2
20 26 27 1
21 27 28 2
22 27 33 1
23 28 29 1
24 28 30 1
25 4 29 1
26 6 29 1
27 30 31 2
28 13 31 1
29 31 32 1
30 32 33 2
31 8 34 1
32 10 34 1
33 34 35 1
34 35 36 1
35 36 37 1
36 36 38 2
37 36 39 1
38 5 37 1
39 39 40 1
40 40 41 2
41 40 42 1
42 40 43 1
43 7 42 1
44 43 44 1
45 44 45 1
46 44 46 2
47 44 47 1
48 12 45 1
49 14 47 1
@<TRIPOS>SUBSTRUCTURE
1	UNK0	1	GROUP	1 ****	UNK
