data/FXA/cocry_dataset/1f0r_815_LIG.pdb
 OpenBabel03092320563D

 50 54  0  0  1  0  0  0  0  0999 V2000
    1.9774    0.4332   -0.0474 C   0  0  0  0  0  0  0  0  0  0  0  0
    0.8070    0.9794   -0.5836 C   0  0  0  0  0  0  0  0  0  0  0  0
    0.2382    0.4593   -1.7563 C   0  0  0  0  0  0  0  0  0  0  0  0
    0.8534   -0.6320   -2.4029 C   0  0  0  0  0  0  0  0  0  0  0  0
    2.0526   -1.1587   -1.8505 C   0  0  0  0  0  0  0  0  0  0  0  0
    2.6199   -0.6413   -0.6724 C   0  0  0  0  0  0  0  0  0  0  0  0
    3.8628   -1.2586   -0.0640 C   0  0  0  0  0  0  0  0  0  0  0  0
    5.0036   -0.3585   -0.0416 N   0  0  0  0  0  0  0  0  0  0  0  0
    5.2848    0.5429    0.9858 C   0  0  0  0  0  0  0  0  0  0  0  0
    4.7869    0.5502    2.1002 O   0  0  0  0  0  0  0  0  0  0  0  0
    6.2584    1.5674    0.4154 C   0  0  2  0  0  0  0  0  0  0  0  0
    6.9253    0.7575   -0.6880 C   0  0  0  0  0  0  0  0  0  0  0  0
    5.7812   -0.0811   -1.2206 C   0  0  0  0  0  0  0  0  0  0  0  0
    7.2071    2.1704    1.3584 N   0  0  0  0  0  0  0  0  0  0  0  0
    8.2589    3.3464    0.7717 S   0  0  0  0  0  0  0  0  0  0  0  0
    8.8985    3.9641    1.9080 O   0  0  0  0  0  0  0  0  0  0  0  0
    9.0440    2.7442   -0.2849 O   0  0  0  0  0  0  0  0  0  0  0  0
    7.3319    4.6291   -0.0335 C   0  0  0  0  0  0  0  0  0  0  0  0
    7.3483    5.1275   -1.3227 C   0  0  0  0  0  0  0  0  0  0  0  0
    6.5382    6.2919   -1.4659 C   0  0  0  0  0  0  0  0  0  0  0  0
    5.8726    6.6077   -0.2819 C   0  0  0  0  0  0  0  0  0  0  0  0
    5.0822    7.7617   -0.2033 C   0  0  0  0  0  0  0  0  0  0  0  0
    5.0216    8.5685   -1.3335 C   0  0  0  0  0  0  0  0  0  0  0  0
    5.6966    8.1711   -2.4744 C   0  0  0  0  0  0  0  0  0  0  0  0
    6.4412    7.0519   -2.5912 N   0  0  0  0  0  0  0  0  0  0  0  0
    6.1937    5.4485    0.9414 S   0  0  0  0  0  0  0  0  0  0  0  0
    0.2159   -1.1278   -3.5635 C   0  0  0  0  0  0  0  0  0  0  0  0
   -0.9070   -0.6009   -4.0894 N   0  0  0  0  0  0  0  0  0  0  0  0
   -1.4548    0.4494   -3.4476 C   0  0  0  0  0  0  0  0  0  0  0  0
   -0.9340    1.0024   -2.2923 C   0  0  0  0  0  0  0  0  0  0  0  0
    0.7122   -2.2354   -4.2619 N   0  0  0  0  0  0  0  0  0  0  0  0
    2.3753    0.8487    0.8773 H   0  0  0  0  0  0  0  0  0  0  0  0
    0.3345    1.8114   -0.0649 H   0  0  0  0  0  0  0  0  0  0  0  0
    2.5395   -1.9908   -2.3566 H   0  0  0  0  0  0  0  0  0  0  0  0
    4.1629   -2.1541   -0.6219 H   0  0  0  0  0  0  0  0  0  0  0  0
    3.6321   -1.5700    0.9612 H   0  0  0  0  0  0  0  0  0  0  0  0
    5.6276    2.3580   -0.0060 H   0  0  0  0  0  0  0  0  0  0  0  0
    7.7146    0.1154   -0.2726 H   0  0  0  0  0  0  0  0  0  0  0  0
    7.3636    1.3737   -1.4760 H   0  0  0  0  0  0  0  0  0  0  0  0
    6.1350   -1.0094   -1.6771 H   0  0  0  0  0  0  0  0  0  0  0  0
    5.1700    0.4834   -1.9314 H   0  0  0  0  0  0  0  0  0  0  0  0
    7.6867    1.5187    1.9821 H   0  0  0  0  0  0  0  0  0  0  0  0
    7.9754    4.7295   -2.1117 H   0  0  0  0  0  0  0  0  0  0  0  0
    4.5713    8.0322    0.7147 H   0  0  0  0  0  0  0  0  0  0  0  0
    4.4609    9.4975   -1.3186 H   0  0  0  0  0  0  0  0  0  0  0  0
    5.6590    8.7875   -3.3705 H   0  0  0  0  0  0  0  0  0  0  0  0
   -2.3593    0.8474   -3.8995 H   0  0  0  0  0  0  0  0  0  0  0  0
   -1.4372    1.8427   -1.8254 H   0  0  0  0  0  0  0  0  0  0  0  0
    0.7622   -3.0400   -3.6475 H   0  0  0  0  0  0  0  0  0  0  0  0
    0.0494   -2.3984   -5.0182 H   0  0  0  0  0  0  0  0  0  0  0  0
  1  2  1  0  0  0  0
  1  6  2  0  0  0  0
  1 32  1  0  0  0  0
  2  3  2  0  0  0  0
  2 33  1  0  0  0  0
  3  4  1  0  0  0  0
  3 30  1  0  0  0  0
  4  5  2  0  0  0  0
  4 27  1  0  0  0  0
  5  6  1  0  0  0  0
  5 34  1  0  0  0  0
  6  7  1  0  0  0  0
  7  8  1  0  0  0  0
  7 35  1  0  0  0  0
  7 36  1  0  0  0  0
  8  9  1  0  0  0  0
  8 13  1  0  0  0  0
  9 10  2  0  0  0  0
  9 11  1  0  0  0  0
 11 12  1  0  0  0  0
 11 14  1  0  0  0  0
 11 37  1  6  0  0  0
 12 13  1  0  0  0  0
 12 38  1  0  0  0  0
 12 39  1  0  0  0  0
 13 40  1  0  0  0  0
 13 41  1  0  0  0  0
 14 15  1  0  0  0  0
 14 42  1  0  0  0  0
 15 16  2  0  0  0  0
 15 17  2  0  0  0  0
 15 18  1  0  0  0  0
 18 19  2  0  0  0  0
 18 26  1  0  0  0  0
 19 20  1  0  0  0  0
 19 43  1  0  0  0  0
 20 21  1  0  0  0  0
 20 25  2  0  0  0  0
 21 22  2  0  0  0  0
 21 26  1  0  0  0  0
 22 23  1  0  0  0  0
 22 44  1  0  0  0  0
 23 24  2  0  0  0  0
 23 45  1  0  0  0  0
 24 25  1  0  0  0  0
 24 46  1  0  0  0  0
 27 28  2  0  0  0  0
 27 31  1  0  0  0  0
 28 29  1  0  0  0  0
 29 30  2  0  0  0  0
 29 47  1  0  0  0  0
 30 48  1  0  0  0  0
 31 49  1  0  0  0  0
 31 50  1  0  0  0  0
M  END
$$$$
