data/FXA/cocry_dataset/1f0s_PR2_LIG.pdb
 OpenBabel03092320563D

 46 50  0  0  1  0  0  0  0  0999 V2000
   -2.6311   -5.3328   -1.9523 C   0  0  0  0  0  0  0  0  0  0  0  0
   -2.0450   -5.9765   -3.0519 C   0  0  0  0  0  0  0  0  0  0  0  0
   -2.2160   -7.3539   -3.1483 C   0  0  0  0  0  0  0  0  0  0  0  0
   -2.9503   -8.0064   -2.1743 C   0  0  0  0  0  0  0  0  0  0  0  0
   -3.5177   -7.4193   -1.1042 N   0  0  0  0  0  0  0  0  0  0  0  0
   -3.3368   -6.0742   -1.0044 C   0  0  0  0  0  0  0  0  0  0  0  0
   -3.8198   -5.2598    0.0551 C   0  0  0  0  0  0  0  0  0  0  0  0
   -3.5201   -3.9247   -0.1185 C   0  0  0  0  0  0  0  0  0  0  0  0
   -2.6295   -3.6614   -1.5551 S   0  0  0  0  0  0  0  0  0  0  0  0
   -3.9083   -2.4749    0.8352 S   0  0  0  0  0  0  0  0  0  0  0  0
   -4.7168   -2.9194    1.9471 O   0  0  0  0  0  0  0  0  0  0  0  0
   -2.6309   -1.8267    1.0372 O   0  0  0  0  0  0  0  0  0  0  0  0
   -4.8293   -1.4238   -0.1261 N   0  0  0  0  0  0  0  0  0  0  0  0
   -6.2890   -1.6054   -0.0930 C   0  0  2  0  0  0  0  0  0  0  0  0
   -6.8423   -2.9213   -0.6060 C   0  0  0  0  0  0  0  0  0  0  0  0
   -6.3905   -4.0358   -0.4068 O   0  0  0  0  0  0  0  0  0  0  0  0
   -7.9937   -2.6515   -1.3164 N   0  0  0  0  0  0  0  0  0  0  0  0
   -8.3055   -1.2480   -1.3470 C   0  0  0  0  0  0  0  0  0  0  0  0
   -6.9744   -0.5929   -1.0214 C   0  0  0  0  0  0  0  0  0  0  0  0
   -8.9066   -3.6801   -1.7680 C   0  0  0  0  0  0  0  0  0  0  0  0
   -8.6403   -4.0400   -3.2000 C   0  0  0  0  0  0  0  0  0  0  0  0
   -8.2752   -5.2722   -3.6347 C   0  0  0  0  0  0  0  0  0  0  0  0
   -8.2675   -5.1715   -5.0569 C   0  0  0  0  0  0  0  0  0  0  0  0
   -8.0538   -5.9835   -6.0844 C   0  0  0  0  0  0  0  0  0  0  0  0
   -8.1694   -5.5146   -7.5074 C   0  0  0  0  0  0  0  0  0  0  0  0
   -8.5593   -4.1084   -7.7091 N   0  0  0  0  0  0  0  0  0  0  0  0
   -8.7693   -3.3320   -6.7055 C   0  0  0  0  0  0  0  0  0  0  0  0
   -8.6437   -3.7906   -5.3109 C   0  0  0  0  0  0  0  0  0  0  0  0
   -8.8607   -3.1036   -4.2208 N   0  0  0  0  0  0  0  0  0  0  0  0
   -1.4779   -5.4251   -3.7943 H   0  0  0  0  0  0  0  0  0  0  0  0
   -1.7815   -7.9103   -3.9723 H   0  0  0  0  0  0  0  0  0  0  0  0
   -3.1047   -9.0814   -2.2325 H   0  0  0  0  0  0  0  0  0  0  0  0
   -4.4089   -5.6276    0.8852 H   0  0  0  0  0  0  0  0  0  0  0  0
   -4.4197   -1.3501   -1.0567 H   0  0  0  0  0  0  0  0  0  0  0  0
   -6.6588   -1.4551    0.9287 H   0  0  0  0  0  0  0  0  0  0  0  0
   -9.0569   -1.0440   -0.5778 H   0  0  0  0  0  0  0  0  0  0  0  0
   -8.6851   -0.9510   -2.3279 H   0  0  0  0  0  0  0  0  0  0  0  0
   -7.0969    0.3920   -0.5577 H   0  0  0  0  0  0  0  0  0  0  0  0
   -6.3938   -0.4549   -1.9421 H   0  0  0  0  0  0  0  0  0  0  0  0
   -9.9335   -3.3214   -1.6457 H   0  0  0  0  0  0  0  0  0  0  0  0
   -8.7840   -4.5621   -1.1278 H   0  0  0  0  0  0  0  0  0  0  0  0
   -8.0848   -6.1506   -3.0434 H   0  0  0  0  0  0  0  0  0  0  0  0
   -7.7994   -7.0253   -5.9206 H   0  0  0  0  0  0  0  0  0  0  0  0
   -8.9029   -6.1461   -8.0218 H   0  0  0  0  0  0  0  0  0  0  0  0
   -7.2054   -5.6724   -8.0033 H   0  0  0  0  0  0  0  0  0  0  0  0
   -9.0637   -2.2794   -6.8337 H   0  0  0  0  0  0  0  0  0  0  0  0
  1  2  1  0  0  0  0
  1  6  2  0  0  0  0
  1  9  1  0  0  0  0
  2  3  2  0  0  0  0
  2 30  1  0  0  0  0
  3  4  1  0  0  0  0
  3 31  1  0  0  0  0
  4  5  2  0  0  0  0
  4 32  1  0  0  0  0
  5  6  1  0  0  0  0
  6  7  1  0  0  0  0
  7  8  2  0  0  0  0
  7 33  1  0  0  0  0
  8  9  1  0  0  0  0
  8 10  1  0  0  0  0
 10 11  2  0  0  0  0
 10 12  2  0  0  0  0
 10 13  1  0  0  0  0
 13 14  1  0  0  0  0
 13 34  1  0  0  0  0
 14 15  1  0  0  0  0
 14 19  1  0  0  0  0
 14 35  1  1  0  0  0
 15 16  2  0  0  0  0
 15 17  1  0  0  0  0
 17 18  1  0  0  0  0
 17 20  1  0  0  0  0
 18 19  1  0  0  0  0
 18 36  1  0  0  0  0
 18 37  1  0  0  0  0
 19 38  1  0  0  0  0
 19 39  1  0  0  0  0
 20 21  1  0  0  0  0
 20 40  1  0  0  0  0
 20 41  1  0  0  0  0
 21 22  2  0  0  0  0
 21 29  1  0  0  0  0
 22 23  1  0  0  0  0
 22 42  1  0  0  0  0
 23 24  2  0  0  0  0
 23 28  1  0  0  0  0
 24 25  1  0  0  0  0
 24 43  1  0  0  0  0
 25 26  1  0  0  0  0
 25 44  1  0  0  0  0
 25 45  1  0  0  0  0
 26 27  2  0  0  0  0
 27 28  1  0  0  0  0
 27 46  1  0  0  0  0
 28 29  2  0  0  0  0
M  END
$$$$
