data/FXA/cocry_dataset/1fax_DX9_LIG.pdb
 OpenBabel03092320563D

 64 67  0  0  1  0  0  0  0  0999 V2000
    5.8550    2.3768    0.4398 C   0  0  0  0  0  0  0  0  0  0  0  0
    5.7751    1.3268    1.3640 C   0  0  0  0  0  0  0  0  0  0  0  0
    6.7006    1.2828    2.4118 C   0  0  0  0  0  0  0  0  0  0  0  0
    7.7063    2.2500    2.5086 C   0  0  0  0  0  0  0  0  0  0  0  0
    7.8150    3.2744    1.5530 C   0  0  0  0  0  0  0  0  0  0  0  0
    8.8285    4.2431    1.6011 C   0  0  0  0  0  0  0  0  0  0  0  0
    8.9226    5.2372    0.6170 C   0  0  0  0  0  0  0  0  0  0  0  0
    8.0081    5.2896   -0.4462 C   0  0  0  0  0  0  0  0  0  0  0  0
    6.9841    4.3289   -0.4757 C   0  0  0  0  0  0  0  0  0  0  0  0
    6.8774    3.3318    0.5044 C   0  0  0  0  0  0  0  0  0  0  0  0
    8.1163    6.2991   -1.5189 C   0  0  0  0  0  0  0  0  0  0  0  0
    9.2981    6.7327   -1.9045 N   0  0  0  0  0  4  0  0  0  0  0  0
    7.0301    6.7487   -2.1129 N   0  0  0  0  0  0  0  0  0  0  0  0
    4.7093    0.2598    1.2094 C   0  0  0  0  0  0  0  0  0  0  0  0
    4.7673   -0.4804   -0.1540 C   0  0  2  0  0  0  0  0  0  0  0  0
    3.4711   -1.2482   -0.3537 C   0  0  0  0  0  0  0  0  0  0  0  0
    2.3769   -0.6935   -0.2891 O   0  0  0  0  0  0  0  0  0  0  0  0
    3.5658   -2.5604   -0.6317 O   0  0  0  0  0  0  0  0  0  0  0  0
    6.0820   -1.2159   -0.4150 C   0  0  0  0  0  0  0  0  0  0  0  0
    6.6299   -1.1659   -1.7060 C   0  0  0  0  0  0  0  0  0  0  0  0
    7.9358   -1.6016   -1.9554 C   0  0  0  0  0  0  0  0  0  0  0  0
    8.7147   -2.1300   -0.9298 C   0  0  0  0  0  0  0  0  0  0  0  0
    8.1453   -2.2653    0.3389 C   0  0  0  0  0  0  0  0  0  0  0  0
    6.8350   -1.8330    0.5930 C   0  0  0  0  0  0  0  0  0  0  0  0
   10.0233   -2.5226   -1.0306 O   0  0  0  0  0  0  0  0  0  0  0  0
   10.6156   -2.5344   -2.3272 C   0  0  2  0  0  0  0  0  0  0  0  0
   11.7786   -3.5238   -2.3989 C   0  0  0  0  0  0  0  0  0  0  0  0
   12.5756   -3.0956   -3.5743 N   0  0  0  0  0  0  0  0  0  0  0  0
   12.5468   -1.6225   -3.4611 C   0  0  0  0  0  0  0  0  0  0  0  0
   11.3042   -1.2214   -2.6692 C   0  0  0  0  0  0  0  0  0  0  0  0
   12.0504   -3.6262   -4.8333 C   0  0  1  0  0  0  0  0  0  0  0  0
   12.9209   -3.1715   -5.8992 N   0  0  0  0  0  0  0  0  0  0  0  0
   12.1103   -5.1593   -4.9072 C   0  0  0  0  0  0  0  0  0  0  0  0
    5.1149    2.4356   -0.3557 H   0  0  0  0  0  0  0  0  0  0  0  0
    6.6568    0.4892    3.1555 H   0  0  0  0  0  0  0  0  0  0  0  0
    8.4144    2.1845    3.3331 H   0  0  0  0  0  0  0  0  0  0  0  0
    9.5589    4.2236    2.4095 H   0  0  0  0  0  0  0  0  0  0  0  0
    9.7209    5.9692    0.7142 H   0  0  0  0  0  0  0  0  0  0  0  0
    6.2651    4.3199   -1.2931 H   0  0  0  0  0  0  0  0  0  0  0  0
   10.1443    6.3676   -1.4820 H   0  0  0  0  0  0  0  0  0  0  0  0
    9.4120    7.4221   -2.6349 H   0  0  0  0  0  0  0  0  0  0  0  0
    6.1111    6.4543   -1.8009 H   0  0  0  0  0  0  0  0  0  0  0  0
    7.0609    7.4085   -2.8777 H   0  0  0  0  0  0  0  0  0  0  0  0
    3.7375    0.7571    1.3308 H   0  0  0  0  0  0  0  0  0  0  0  0
    4.7655   -0.4616    2.0352 H   0  0  0  0  0  0  0  0  0  0  0  0
    4.7154    0.2865   -0.9404 H   0  0  0  0  0  0  0  0  0  0  0  0
    4.4764   -2.9197   -0.6829 H   0  0  0  0  0  0  0  0  0  0  0  0
    6.0669   -0.7311   -2.5304 H   0  0  0  0  0  0  0  0  0  0  0  0
    8.3166   -1.4747   -2.9627 H   0  0  0  0  0  0  0  0  0  0  0  0
    8.7382   -2.6826    1.1512 H   0  0  0  0  0  0  0  0  0  0  0  0
    6.4531   -1.9343    1.6067 H   0  0  0  0  0  0  0  0  0  0  0  0
    9.8949   -2.8245   -3.0987 H   0  0  0  0  0  0  0  0  0  0  0  0
   11.4194   -4.5554   -2.4266 H   0  0  0  0  0  0  0  0  0  0  0  0
   12.3996   -3.4568   -1.4955 H   0  0  0  0  0  0  0  0  0  0  0  0
   12.5929   -1.0788   -4.4095 H   0  0  0  0  0  0  0  0  0  0  0  0
   13.4414   -1.3139   -2.9038 H   0  0  0  0  0  0  0  0  0  0  0  0
   10.6474   -0.5795   -3.2656 H   0  0  0  0  0  0  0  0  0  0  0  0
   11.5860   -0.6588   -1.7710 H   0  0  0  0  0  0  0  0  0  0  0  0
   11.0242   -3.2975   -5.0337 H   0  0  0  0  0  0  0  0  0  0  0  0
   13.8767   -3.3240   -5.5814 H   0  0  0  0  0  0  0  0  0  0  0  0
   12.8212   -2.1745   -6.0394 H   0  0  0  0  0  0  0  0  0  0  0  0
   13.1216   -5.5336   -4.7044 H   0  0  0  0  0  0  0  0  0  0  0  0
   11.8231   -5.5116   -5.9058 H   0  0  0  0  0  0  0  0  0  0  0  0
   11.4261   -5.6397   -4.2030 H   0  0  0  0  0  0  0  0  0  0  0  0
  1  2  1  0  0  0  0
  1 10  2  0  0  0  0
  1 34  1  0  0  0  0
  2  3  2  0  0  0  0
  2 14  1  0  0  0  0
  3  4  1  0  0  0  0
  3 35  1  0  0  0  0
  4  5  2  0  0  0  0
  4 36  1  0  0  0  0
  5  6  1  0  0  0  0
  5 10  1  0  0  0  0
  6  7  2  0  0  0  0
  6 37  1  0  0  0  0
  7  8  1  0  0  0  0
  7 38  1  0  0  0  0
  8  9  2  0  0  0  0
  8 11  1  0  0  0  0
  9 10  1  0  0  0  0
  9 39  1  0  0  0  0
 11 12  2  0  0  0  0
 11 13  1  0  0  0  0
 12 40  1  0  0  0  0
 12 41  1  0  0  0  0
 13 42  1  0  0  0  0
 13 43  1  0  0  0  0
 14 44  1  0  0  0  0
 14 45  1  0  0  0  0
 15 19  1  0  0  0  0
 15 16  1  0  0  0  0
 15 14  1  0  0  0  0
 15 46  1  6  0  0  0
 16 17  2  0  0  0  0
 16 18  1  0  0  0  0
 18 47  1  0  0  0  0
 19 20  1  0  0  0  0
 19 24  2  0  0  0  0
 20 21  2  0  0  0  0
 20 48  1  0  0  0  0
 21 22  1  0  0  0  0
 21 49  1  0  0  0  0
 22 23  2  0  0  0  0
 22 25  1  0  0  0  0
 23 24  1  0  0  0  0
 23 50  1  0  0  0  0
 24 51  1  0  0  0  0
 25 26  1  0  0  0  0
 26 27  1  0  0  0  0
 26 30  1  0  0  0  0
 26 52  1  6  0  0  0
 27 28  1  0  0  0  0
 27 53  1  0  0  0  0
 27 54  1  0  0  0  0
 28 29  1  0  0  0  0
 28 31  1  0  0  0  0
 29 30  1  0  0  0  0
 29 55  1  0  0  0  0
 29 56  1  0  0  0  0
 30 57  1  0  0  0  0
 30 58  1  0  0  0  0
 31 32  1  0  0  0  0
 31 33  1  0  0  0  0
 31 59  1  6  0  0  0
 32 60  1  0  0  0  0
 32 61  1  0  0  0  0
 33 62  1  0  0  0  0
 33 63  1  0  0  0  0
 33 64  1  0  0  0  0
M  END
$$$$
