data/FXA/cocry_dataset/1g2l_T87_LIG.pdb
 OpenBabel03092320563D

 70 74  0  0  0  0  0  0  0  0999 V2000
    5.1532   -9.9311   -0.5158 N   0  0  0  0  0  0  0  0  0  0  0  0
    4.6302   -8.7760   -0.0071 C   0  0  0  0  0  0  0  0  0  0  0  0
    4.1240   -8.7497    1.1827 N   0  0  0  0  0  0  0  0  0  0  0  0
    4.6808   -7.5402   -0.8144 C   0  0  0  0  0  0  0  0  0  0  0  0
    4.6665   -7.6474   -2.1999 C   0  0  0  0  0  0  0  0  0  0  0  0
    4.8203   -6.5059   -2.9811 C   0  0  0  0  0  0  0  0  0  0  0  0
    4.9652   -5.2469   -2.3943 C   0  0  0  0  0  0  0  0  0  0  0  0
    4.9587   -5.1510   -0.9973 C   0  0  0  0  0  0  0  0  0  0  0  0
    4.7956   -6.2895   -0.2069 C   0  0  0  0  0  0  0  0  0  0  0  0
    5.2301   -4.1188   -3.1776 N   0  0  0  0  0  0  0  0  0  0  0  0
    4.4120   -4.0174   -4.3810 C   0  0  0  0  0  0  0  0  0  0  0  0
    5.0349   -4.3597   -5.7273 C   0  0  0  0  0  0  0  0  0  0  0  0
    5.1124   -3.3627   -6.5911 N   0  0  0  0  0  0  0  0  0  0  0  0
    4.0558   -3.6486   -7.3998 C   0  0  0  0  0  0  0  0  0  0  0  0
    3.7891   -5.0102   -7.4244 C   0  0  0  0  0  0  0  0  0  0  0  0
    4.6880   -5.4888   -6.4874 N   0  0  0  0  0  0  0  0  0  0  0  0
    5.5947   -6.5599   -6.8632 C   0  0  0  0  0  0  0  0  0  0  0  0
    2.9106   -5.6008   -8.3333 C   0  0  0  0  0  0  0  0  0  0  0  0
    2.2480   -4.7177   -9.1942 C   0  0  0  0  0  0  0  0  0  0  0  0
    2.4130   -3.3223   -9.1093 C   0  0  0  0  0  0  0  0  0  0  0  0
    3.2883   -2.7895   -8.1540 C   0  0  0  0  0  0  0  0  0  0  0  0
    1.8174   -2.3412  -10.0905 C   0  0  0  0  0  0  0  0  0  0  0  0
    0.6668   -1.5154   -9.4742 C   0  0  0  0  0  0  0  0  0  0  0  0
    0.3916   -2.4434  -10.6029 C   0  0  0  0  0  0  0  0  0  0  0  0
    2.8556   -1.7131  -11.0121 C   0  0  0  0  0  0  0  0  0  0  0  0
    3.5031   -2.3875  -11.9346 N   0  0  0  0  0  0  0  0  0  0  0  0
    3.1876   -3.7689  -11.9868 O   0  0  0  0  0  0  0  0  0  0  0  0
    4.1287   -4.4378  -12.8391 C   0  0  0  0  0  0  0  0  0  0  0  0
    3.8817   -5.9477  -12.9981 C   0  0  0  0  0  0  0  0  0  0  0  0
    3.1350   -6.6254  -12.3035 O   0  0  0  0  0  0  0  0  0  0  0  0
    4.6559   -6.4587  -14.0129 O   0  0  0  0  0  0  0  0  0  0  0  0
    4.6744   -7.8946  -14.1716 C   0  0  0  0  0  0  0  0  0  0  0  0
    3.6017   -8.3855  -15.1313 C   0  0  0  0  0  0  0  0  0  0  0  0
    3.2016   -0.2688  -10.7806 C   0  0  0  0  0  0  0  0  0  0  0  0
    3.0062    0.2255   -9.5272 N   0  0  0  0  0  0  0  0  0  0  0  0
    3.3273    1.5163   -9.3035 C   0  0  0  0  0  0  0  0  0  0  0  0
    3.8328    2.3541  -10.2787 C   0  0  0  0  0  0  0  0  0  0  0  0
    4.0391    1.8276  -11.5518 C   0  0  0  0  0  0  0  0  0  0  0  0
    3.7313    0.4925  -11.8124 C   0  0  0  0  0  0  0  0  0  0  0  0
    5.4058  -10.6321    0.1681 H   0  0  0  0  0  0  0  0  0  0  0  0
    5.8972   -9.7989   -1.1957 H   0  0  0  0  0  0  0  0  0  0  0  0
    4.1419   -9.6866    1.5887 H   0  0  0  0  0  0  0  0  0  0  0  0
    4.5380   -8.6011   -2.6964 H   0  0  0  0  0  0  0  0  0  0  0  0
    4.8375   -6.6285   -4.0523 H   0  0  0  0  0  0  0  0  0  0  0  0
    5.0812   -4.1868   -0.5095 H   0  0  0  0  0  0  0  0  0  0  0  0
    4.7883   -6.2077    0.8762 H   0  0  0  0  0  0  0  0  0  0  0  0
    5.1434   -3.2661   -2.6287 H   0  0  0  0  0  0  0  0  0  0  0  0
    4.1609   -2.9466   -4.4542 H   0  0  0  0  0  0  0  0  0  0  0  0
    3.4310   -4.4998   -4.2742 H   0  0  0  0  0  0  0  0  0  0  0  0
    5.0720   -7.2490   -7.5373 H   0  0  0  0  0  0  0  0  0  0  0  0
    5.9161   -7.1029   -5.9768 H   0  0  0  0  0  0  0  0  0  0  0  0
    6.4452   -6.1212   -7.3912 H   0  0  0  0  0  0  0  0  0  0  0  0
    2.7819   -6.6743   -8.4182 H   0  0  0  0  0  0  0  0  0  0  0  0
    1.6255   -5.1300   -9.9879 H   0  0  0  0  0  0  0  0  0  0  0  0
    3.4327   -1.7232   -8.0382 H   0  0  0  0  0  0  0  0  0  0  0  0
    0.6128   -0.4472   -9.6406 H   0  0  0  0  0  0  0  0  0  0  0  0
    0.3019   -1.7950   -8.4900 H   0  0  0  0  0  0  0  0  0  0  0  0
    0.1489   -1.9773  -11.5509 H   0  0  0  0  0  0  0  0  0  0  0  0
   -0.1853   -3.3335  -10.3867 H   0  0  0  0  0  0  0  0  0  0  0  0
    5.1374   -4.3209  -12.4217 H   0  0  0  0  0  0  0  0  0  0  0  0
    4.0841   -3.9785  -13.8317 H   0  0  0  0  0  0  0  0  0  0  0  0
    4.5922   -8.3989  -13.2032 H   0  0  0  0  0  0  0  0  0  0  0  0
    5.6571   -8.1581  -14.5819 H   0  0  0  0  0  0  0  0  0  0  0  0
    2.6015   -8.1262  -14.7748 H   0  0  0  0  0  0  0  0  0  0  0  0
    3.6565   -9.4744  -15.2460 H   0  0  0  0  0  0  0  0  0  0  0  0
    3.7235   -7.9334  -16.1212 H   0  0  0  0  0  0  0  0  0  0  0  0
    3.1584    1.8700   -8.2892 H   0  0  0  0  0  0  0  0  0  0  0  0
    4.0642    3.3903  -10.0515 H   0  0  0  0  0  0  0  0  0  0  0  0
    4.4422    2.4550  -12.3411 H   0  0  0  0  0  0  0  0  0  0  0  0
    3.8898    0.0651  -12.7999 H   0  0  0  0  0  0  0  0  0  0  0  0
  1  2  1  0  0  0  0
  1 40  1  0  0  0  0
  1 41  1  0  0  0  0
  2  3  2  0  0  0  0
  2  4  1  0  0  0  0
  3 42  1  0  0  0  0
  4  5  1  0  0  0  0
  4  9  2  0  0  0  0
  5  6  2  0  0  0  0
  5 43  1  0  0  0  0
  6  7  1  0  0  0  0
  6 44  1  0  0  0  0
  7  8  2  0  0  0  0
  7 10  1  0  0  0  0
  8  9  1  0  0  0  0
  8 45  1  0  0  0  0
  9 46  1  0  0  0  0
 10 11  1  0  0  0  0
 10 47  1  0  0  0  0
 11 12  1  0  0  0  0
 11 48  1  0  0  0  0
 11 49  1  0  0  0  0
 12 13  2  0  0  0  0
 12 16  1  0  0  0  0
 13 14  1  0  0  0  0
 14 15  1  0  0  0  0
 14 21  2  0  0  0  0
 15 16  1  0  0  0  0
 15 18  2  0  0  0  0
 16 17  1  0  0  0  0
 17 50  1  0  0  0  0
 17 51  1  0  0  0  0
 17 52  1  0  0  0  0
 18 19  1  0  0  0  0
 18 53  1  0  0  0  0
 19 20  2  0  0  0  0
 19 54  1  0  0  0  0
 20 21  1  0  0  0  0
 20 22  1  0  0  0  0
 21 55  1  0  0  0  0
 22 23  1  0  0  0  0
 22 24  1  0  0  0  0
 22 25  1  0  0  0  0
 23 24  1  0  0  0  0
 23 56  1  0  0  0  0
 23 57  1  0  0  0  0
 24 58  1  0  0  0  0
 24 59  1  0  0  0  0
 25 26  2  0  0  0  0
 25 34  1  0  0  0  0
 26 27  1  0  0  0  0
 27 28  1  0  0  0  0
 28 29  1  0  0  0  0
 28 60  1  0  0  0  0
 28 61  1  0  0  0  0
 29 30  2  0  0  0  0
 29 31  1  0  0  0  0
 31 32  1  0  0  0  0
 32 33  1  0  0  0  0
 32 62  1  0  0  0  0
 32 63  1  0  0  0  0
 33 64  1  0  0  0  0
 33 65  1  0  0  0  0
 33 66  1  0  0  0  0
 34 35  1  0  0  0  0
 34 39  2  0  0  0  0
 35 36  2  0  0  0  0
 36 37  1  0  0  0  0
 36 67  1  0  0  0  0
 37 38  2  0  0  0  0
 37 68  1  0  0  0  0
 38 39  1  0  0  0  0
 38 69  1  0  0  0  0
 39 70  1  0  0  0  0
M  END
$$$$
