data/FXA/cocry_dataset/1g2m_R11_LIG.pdb
 OpenBabel03092320563D

 57 61  0  0  0  0  0  0  0  0999 V2000
    5.6632    5.5118   -8.1059 N   0  0  0  0  0  0  0  0  0  0  0  0
    5.5624    4.4171   -7.2978 C   0  0  0  0  0  0  0  0  0  0  0  0
    5.4556    3.2372   -7.7973 N   0  0  0  0  0  0  0  0  0  0  0  0
    5.5907    4.5951   -5.8189 C   0  0  0  0  0  0  0  0  0  0  0  0
    5.1272    5.7832   -5.2749 C   0  0  0  0  0  0  0  0  0  0  0  0
    5.1684    5.9763   -3.8969 C   0  0  0  0  0  0  0  0  0  0  0  0
    5.6822    5.0015   -3.0328 C   0  0  0  0  0  0  0  0  0  0  0  0
    6.1156    3.7874   -3.5990 C   0  0  0  0  0  0  0  0  0  0  0  0
    6.0614    3.5850   -4.9834 C   0  0  0  0  0  0  0  0  0  0  0  0
    5.8018    5.2273   -1.6781 N   0  0  0  0  0  0  0  0  0  0  0  0
    4.8608    6.0837   -0.9847 C   0  0  0  0  0  0  0  0  0  0  0  0
    5.4092    7.3904   -0.4300 C   0  0  0  0  0  0  0  0  0  0  0  0
    5.1735    7.6882    0.8404 N   0  0  0  0  0  0  0  0  0  0  0  0
    4.1462    8.5742    0.7098 C   0  0  0  0  0  0  0  0  0  0  0  0
    4.1811    9.1911   -0.5388 C   0  0  0  0  0  0  0  0  0  0  0  0
    5.2726    8.5870   -1.1219 N   0  0  0  0  0  0  0  0  0  0  0  0
    6.2781    9.2561   -1.9087 C   0  0  0  0  0  0  0  0  0  0  0  0
    3.2403   10.1310   -0.9597 C   0  0  0  0  0  0  0  0  0  0  0  0
    2.1124   10.2399   -0.1389 C   0  0  0  0  0  0  0  0  0  0  0  0
    1.9869    9.5252    1.0727 C   0  0  0  0  0  0  0  0  0  0  0  0
    3.0699    8.7850    1.5665 C   0  0  0  0  0  0  0  0  0  0  0  0
    0.6222    9.3388    1.6825 C   0  0  0  0  0  0  0  0  0  0  0  0
    0.4948    9.7291    3.0764 N   0  0  0  0  0  0  0  0  0  0  0  0
    0.2221    8.8677    4.1236 C   0  0  0  0  0  0  0  0  0  0  0  0
   -0.4078    9.5020    5.0925 N   0  0  0  0  0  0  0  0  0  0  0  0
   -0.5145   10.8053    4.6810 C   0  0  0  0  0  0  0  0  0  0  0  0
    0.1367   11.0019    3.4710 C   0  0  0  0  0  0  0  0  0  0  0  0
    0.2318   12.2549    2.8530 C   0  0  0  0  0  0  0  0  0  0  0  0
   -0.4325   13.3175    3.4746 C   0  0  0  0  0  0  0  0  0  0  0  0
   -1.1573   13.1277    4.6530 C   0  0  0  0  0  0  0  0  0  0  0  0
   -1.1917   11.8760    5.2795 C   0  0  0  0  0  0  0  0  0  0  0  0
    0.4851    7.4047    4.1139 C   0  0  0  0  0  0  0  0  0  0  0  0
    5.9309    5.3282   -9.0630 H   0  0  0  0  0  0  0  0  0  0  0  0
    6.1832    6.3019   -7.7193 H   0  0  0  0  0  0  0  0  0  0  0  0
    5.4044    3.2961   -8.8120 H   0  0  0  0  0  0  0  0  0  0  0  0
    4.7130    6.5663   -5.9021 H   0  0  0  0  0  0  0  0  0  0  0  0
    4.8022    6.9233   -3.5131 H   0  0  0  0  0  0  0  0  0  0  0  0
    6.4813    2.9901   -2.9584 H   0  0  0  0  0  0  0  0  0  0  0  0
    6.3984    2.6389   -5.4007 H   0  0  0  0  0  0  0  0  0  0  0  0
    6.2227    4.5066   -1.1021 H   0  0  0  0  0  0  0  0  0  0  0  0
    4.4695    5.5195   -0.1242 H   0  0  0  0  0  0  0  0  0  0  0  0
    3.9519    6.2904   -1.5715 H   0  0  0  0  0  0  0  0  0  0  0  0
    6.2115   10.3346   -1.7268 H   0  0  0  0  0  0  0  0  0  0  0  0
    6.1095    9.0501   -2.9670 H   0  0  0  0  0  0  0  0  0  0  0  0
    7.2675    8.9098   -1.5973 H   0  0  0  0  0  0  0  0  0  0  0  0
    3.2945   10.6165   -1.9270 H   0  0  0  0  0  0  0  0  0  0  0  0
    1.2758   10.8384   -0.5007 H   0  0  0  0  0  0  0  0  0  0  0  0
    3.0289    8.2154    2.4853 H   0  0  0  0  0  0  0  0  0  0  0  0
    0.3348    8.2847    1.5862 H   0  0  0  0  0  0  0  0  0  0  0  0
   -0.1330    9.9041    1.1243 H   0  0  0  0  0  0  0  0  0  0  0  0
    0.7780   12.4007    1.9275 H   0  0  0  0  0  0  0  0  0  0  0  0
   -0.4002   14.3053    3.0202 H   0  0  0  0  0  0  0  0  0  0  0  0
   -1.7021   13.9592    5.0929 H   0  0  0  0  0  0  0  0  0  0  0  0
   -1.7523   11.7172    6.1930 H   0  0  0  0  0  0  0  0  0  0  0  0
    1.3197    7.1305    3.4657 H   0  0  0  0  0  0  0  0  0  0  0  0
   -0.4063    6.8681    3.7754 H   0  0  0  0  0  0  0  0  0  0  0  0
    0.7271    7.0594    5.1244 H   0  0  0  0  0  0  0  0  0  0  0  0
  1  2  1  0  0  0  0
  1 33  1  0  0  0  0
  1 34  1  0  0  0  0
  2  3  2  0  0  0  0
  2  4  1  0  0  0  0
  3 35  1  0  0  0  0
  4  5  1  0  0  0  0
  4  9  2  0  0  0  0
  5  6  2  0  0  0  0
  5 36  1  0  0  0  0
  6  7  1  0  0  0  0
  6 37  1  0  0  0  0
  7  8  2  0  0  0  0
  7 10  1  0  0  0  0
  8  9  1  0  0  0  0
  8 38  1  0  0  0  0
  9 39  1  0  0  0  0
 10 11  1  0  0  0  0
 10 40  1  0  0  0  0
 11 12  1  0  0  0  0
 11 41  1  0  0  0  0
 11 42  1  0  0  0  0
 12 13  2  0  0  0  0
 12 16  1  0  0  0  0
 13 14  1  0  0  0  0
 14 15  1  0  0  0  0
 14 21  2  0  0  0  0
 15 16  1  0  0  0  0
 15 18  2  0  0  0  0
 16 17  1  0  0  0  0
 17 43  1  0  0  0  0
 17 44  1  0  0  0  0
 17 45  1  0  0  0  0
 18 19  1  0  0  0  0
 18 46  1  0  0  0  0
 19 20  2  0  0  0  0
 19 47  1  0  0  0  0
 20 21  1  0  0  0  0
 20 22  1  0  0  0  0
 21 48  1  0  0  0  0
 22 23  1  0  0  0  0
 22 49  1  0  0  0  0
 22 50  1  0  0  0  0
 23 24  1  0  0  0  0
 23 27  1  0  0  0  0
 24 25  2  0  0  0  0
 24 32  1  0  0  0  0
 25 26  1  0  0  0  0
 26 27  1  0  0  0  0
 26 31  2  0  0  0  0
 27 28  2  0  0  0  0
 28 29  1  0  0  0  0
 28 51  1  0  0  0  0
 29 30  2  0  0  0  0
 29 52  1  0  0  0  0
 30 31  1  0  0  0  0
 30 53  1  0  0  0  0
 31 54  1  0  0  0  0
 32 55  1  0  0  0  0
 32 56  1  0  0  0  0
 32 57  1  0  0  0  0
M  END
$$$$
