data/FXA/cocry_dataset/1ioe_XMA_LIG.pdb
 OpenBabel03092320563D

 67 72  0  0  1  0  0  0  0  0999 V2000
   -8.1526   -1.6965   -0.3398 C   0  0  0  0  0  0  0  0  0  0  0  0
   -6.9647   -1.4688    0.3407 C   0  0  0  0  0  0  0  0  0  0  0  0
   -6.2633   -2.5611    0.9010 C   0  0  0  0  0  0  0  0  0  0  0  0
   -6.7236   -3.8632    0.7485 C   0  0  0  0  0  0  0  0  0  0  0  0
   -7.8962   -4.1080    0.0453 C   0  0  0  0  0  0  0  0  0  0  0  0
   -8.6378   -3.0194   -0.4967 C   0  0  0  0  0  0  0  0  0  0  0  0
   -9.8468   -3.3224   -1.1369 C   0  0  0  0  0  0  0  0  0  0  0  0
  -10.2973   -4.6444   -1.2796 C   0  0  0  0  0  0  0  0  0  0  0  0
   -9.5425   -5.6968   -0.7693 C   0  0  0  0  0  0  0  0  0  0  0  0
  -10.0813   -7.3189   -0.9721 Cl  0  0  0  0  0  0  0  0  0  0  0  0
   -8.3544   -5.4315   -0.1037 C   0  0  0  0  0  0  0  0  0  0  0  0
   -6.2182    0.1002    0.6699 S   0  0  0  0  0  0  0  0  0  0  0  0
   -6.6191    0.4204    2.0251 O   0  0  0  0  0  0  0  0  0  0  0  0
   -4.8085   -0.0951    0.4170 O   0  0  0  0  0  0  0  0  0  0  0  0
   -6.6953    1.4341   -0.2383 N   0  0  0  0  0  0  0  0  0  0  0  0
   -7.2685    1.5871   -1.5953 C   0  0  0  0  0  0  0  0  0  0  0  0
   -6.6819    2.7872   -2.3921 C   0  0  0  0  0  0  0  0  0  0  0  0
   -7.3797    3.5919   -3.0038 O   0  0  0  0  0  0  0  0  0  0  0  0
   -5.2930    2.8901   -2.3879 N   0  0  0  0  0  0  0  0  0  0  0  0
   -4.6708    2.7654   -1.0845 C   0  0  1  0  0  0  0  0  0  0  0  0
   -3.9987    4.1061   -0.5772 C   0  0  0  0  0  0  0  0  0  0  0  0
   -3.0116    4.7303   -1.3898 O   0  0  0  0  0  0  0  0  0  0  0  0
   -1.7503    4.0973   -1.3098 C   0  0  0  0  0  0  0  0  0  0  0  0
   -5.7613    2.5708    0.0480 C   0  0  0  0  0  0  0  0  0  0  0  0
   -3.7400    1.6432   -1.2116 O   0  0  0  0  0  0  0  0  0  0  0  0
   -3.8498    0.9971   -2.5184 C   0  0  0  0  0  0  0  0  0  0  0  0
   -4.5831    2.0666   -3.3450 C   0  0  0  0  0  0  0  0  0  0  0  0
   -2.4748    0.6558   -3.1077 C   0  0  0  0  0  0  0  0  0  0  0  0
   -1.7324   -0.4638   -2.3659 C   0  0  0  0  0  0  0  0  0  0  0  0
   -2.4913   -1.7212   -2.2129 N   0  0  0  0  0  0  0  0  0  0  0  0
   -1.8258   -2.7151   -1.4265 C   0  0  0  0  0  0  0  0  0  0  0  0
   -2.4633   -3.5289   -0.4733 C   0  0  0  0  0  0  0  0  0  0  0  0
   -1.7295   -4.4370    0.2966 C   0  0  0  0  0  0  0  0  0  0  0  0
   -0.4080   -4.6368    0.1701 N   0  0  0  0  0  0  0  0  0  0  0  0
    0.1979   -3.9017   -0.7815 C   0  0  0  0  0  0  0  0  0  0  0  0
   -0.4548   -2.9623   -1.5806 C   0  0  0  0  0  0  0  0  0  0  0  0
   -3.9400   -1.6183   -2.0458 C   0  0  0  0  0  0  0  0  0  0  0  0
   -4.6025   -0.3564   -2.6105 C   0  0  0  0  0  0  0  0  0  0  0  0
   -8.7275   -0.8621   -0.7321 H   0  0  0  0  0  0  0  0  0  0  0  0
   -5.3566   -2.3923    1.4767 H   0  0  0  0  0  0  0  0  0  0  0  0
   -6.1608   -4.6803    1.2177 H   0  0  0  0  0  0  0  0  0  0  0  0
  -10.4660   -2.5229   -1.5389 H   0  0  0  0  0  0  0  0  0  0  0  0
  -11.2360   -4.8460   -1.7903 H   0  0  0  0  0  0  0  0  0  0  0  0
   -7.7830   -6.2740    0.3129 H   0  0  0  0  0  0  0  0  0  0  0  0
   -8.3336    1.8158   -1.4732 H   0  0  0  0  0  0  0  0  0  0  0  0
   -7.2072    0.7071   -2.2279 H   0  0  0  0  0  0  0  0  0  0  0  0
   -4.7839    4.8694   -0.4700 H   0  0  0  0  0  0  0  0  0  0  0  0
   -3.5891    3.9636    0.4340 H   0  0  0  0  0  0  0  0  0  0  0  0
   -0.9801    4.8226   -1.5843 H   0  0  0  0  0  0  0  0  0  0  0  0
   -1.7329    3.2908   -2.0345 H   0  0  0  0  0  0  0  0  0  0  0  0
   -1.5306    3.7182   -0.3067 H   0  0  0  0  0  0  0  0  0  0  0  0
   -6.3951    3.4673    0.1369 H   0  0  0  0  0  0  0  0  0  0  0  0
   -5.2796    2.4588    1.0273 H   0  0  0  0  0  0  0  0  0  0  0  0
   -5.2781    1.6452   -4.0807 H   0  0  0  0  0  0  0  0  0  0  0  0
   -3.8792    2.7165   -3.8753 H   0  0  0  0  0  0  0  0  0  0  0  0
   -1.8262    1.5335   -3.1248 H   0  0  0  0  0  0  0  0  0  0  0  0
   -2.6054    0.3504   -4.1561 H   0  0  0  0  0  0  0  0  0  0  0  0
   -1.3955   -0.1000   -1.3894 H   0  0  0  0  0  0  0  0  0  0  0  0
   -0.8453   -0.6713   -2.9762 H   0  0  0  0  0  0  0  0  0  0  0  0
   -3.5238   -3.4788   -0.2706 H   0  0  0  0  0  0  0  0  0  0  0  0
   -2.2127   -5.0330    1.0668 H   0  0  0  0  0  0  0  0  0  0  0  0
    1.2583   -4.0912   -0.8981 H   0  0  0  0  0  0  0  0  0  0  0  0
    0.1325   -2.4465   -2.3326 H   0  0  0  0  0  0  0  0  0  0  0  0
   -4.2256   -1.7204   -1.0049 H   0  0  0  0  0  0  0  0  0  0  0  0
   -4.3968   -2.4776   -2.5604 H   0  0  0  0  0  0  0  0  0  0  0  0
   -5.5848   -0.3062   -2.1592 H   0  0  0  0  0  0  0  0  0  0  0  0
   -4.7853   -0.5603   -3.6764 H   0  0  0  0  0  0  0  0  0  0  0  0
  1  2  1  0  0  0  0
  1  6  2  0  0  0  0
  1 39  1  0  0  0  0
  2  3  2  0  0  0  0
  2 12  1  0  0  0  0
  3  4  1  0  0  0  0
  3 40  1  0  0  0  0
  4  5  2  0  0  0  0
  4 41  1  0  0  0  0
  5  6  1  0  0  0  0
  5 11  1  0  0  0  0
  6  7  1  0  0  0  0
  7  8  2  0  0  0  0
  7 42  1  0  0  0  0
  8  9  1  0  0  0  0
  8 43  1  0  0  0  0
  9 10  1  0  0  0  0
  9 11  2  0  0  0  0
 11 44  1  0  0  0  0
 12 13  2  0  0  0  0
 12 14  2  0  0  0  0
 12 15  1  0  0  0  0
 15 16  1  0  0  0  0
 15 24  1  0  0  0  0
 16 17  1  0  0  0  0
 16 45  1  0  0  0  0
 16 46  1  0  0  0  0
 17 19  1  0  0  0  0
 17 18  2  0  0  0  0
 19 20  1  0  0  0  0
 19 27  1  0  0  0  0
 20 24  1  0  0  0  0
 20 25  1  0  0  0  0
 20 21  1  1  0  0  0
 21 22  1  0  0  0  0
 21 47  1  0  0  0  0
 21 48  1  0  0  0  0
 22 23  1  0  0  0  0
 23 49  1  0  0  0  0
 23 50  1  0  0  0  0
 23 51  1  0  0  0  0
 24 52  1  0  0  0  0
 24 53  1  0  0  0  0
 25 26  1  0  0  0  0
 26 27  1  0  0  0  0
 26 28  1  0  0  0  0
 26 38  1  0  0  0  0
 27 54  1  0  0  0  0
 27 55  1  0  0  0  0
 28 29  1  0  0  0  0
 28 56  1  0  0  0  0
 28 57  1  0  0  0  0
 29 30  1  0  0  0  0
 29 58  1  0  0  0  0
 29 59  1  0  0  0  0
 30 37  1  0  0  0  0
 30 31  1  0  0  0  0
 31 32  1  0  0  0  0
 31 36  2  0  0  0  0
 32 33  2  0  0  0  0
 32 60  1  0  0  0  0
 33 34  1  0  0  0  0
 33 61  1  0  0  0  0
 34 35  2  0  0  0  0
 35 36  1  0  0  0  0
 35 62  1  0  0  0  0
 36 63  1  0  0  0  0
 37 38  1  0  0  0  0
 37 64  1  0  0  0  0
 37 65  1  0  0  0  0
 38 66  1  0  0  0  0
 38 67  1  0  0  0  0
M  END
$$$$
