@<TRIPOS>MOLECULE
CDK2/cocry_dataset/1aq1_STU_LIG.pdb
 35 42 0 0 0
SMALL
GASTEIGER

@<TRIPOS>ATOM
      1  O4       -10.6240  204.8620  116.0950 O.3   299  STU299     -0.3186
      2  C25       -9.6750  205.8750  115.8000 C.3   299  STU299      0.2078
      3  C24       -9.6610  206.9880  116.8790 C.3   299  STU299      0.0739
      4  C23      -10.7480  206.7100  117.9200 C.3   299  STU299      0.1086
      5  C22      -12.1170  206.5280  117.2030 C.3   299  STU299      0.1761
      6  C21      -11.9650  205.1740  116.4320 C.3   299  STU299      0.1915
      7  C26      -12.3860  204.0710  117.3850 C.3   299  STU299      0.0566
      8  N2       -12.7960  205.1330  115.1970 N.ar  299  STU299     -0.3054
      9  C18      -12.2300  205.5940  113.9800 C.ar  299  STU299      0.0776
     10  C19      -11.0310  206.0940  113.6670 C.ar  299  STU299      0.0778
     11  C6       -10.7020  206.5270  112.3460 C.ar  299  STU299      0.0231
     12  C7       -11.7830  206.3500  111.3620 C.ar  299  STU299      0.0582
     13  C10      -12.9540  205.8590  111.6750 C.ar  299  STU299      0.0226
     14  C11      -13.2800  205.4580  112.9920 C.ar  299  STU299      0.0201
     15  C12      -14.4160  204.9040  113.6230 C.ar  299  STU299      0.0173
     16  C17      -14.1190  204.7080  115.0070 C.ar  299  STU299      0.0617
     17  C16      -15.0640  204.1970  115.8420 C.ar  299  STU299      0.0172
     18  C15      -16.2940  203.8590  115.3620 C.ar  299  STU299      0.0015
     19  C14      -16.6300  204.0520  113.9890 C.ar  299  STU299      0.0001
     20  C13      -15.6700  204.5830  113.1600 C.ar  299  STU299      0.0015
     21  C9       -13.8790  205.8350  110.4440 C.2   299  STU299      0.0891
     22  N1       -12.9590  206.3890  109.4720 N.am  299  STU299     -0.1741
     23  C8       -11.7380  206.7260  109.9130 C.2   299  STU299      0.2691
     24  O5       -10.8190  207.2080  109.2800 O.2   299  STU299     -0.2680
     25  C5        -9.3920  207.0440  112.3520 C.ar  299  STU299      0.0174
     26  C20       -8.9170  206.9230  113.6900 C.ar  299  STU299      0.0618
     27  C1        -7.6220  207.2890  114.0670 C.ar  299  STU299      0.0172
     28  C2        -6.8040  207.8110  113.0910 C.ar  299  STU299      0.0015
     29  C3        -7.2680  207.9470  111.7620 C.ar  299  STU299      0.0001
     30  C4        -8.5250  207.5530  111.4110 C.ar  299  STU299      0.0015
     31  N3        -9.8980  206.3980  114.4570 N.ar  299  STU299     -0.3039
     32  O6       -12.2240  207.6140  116.2610 O.3   299  STU299     -0.3478
     33  C27      -13.5590  207.8080  115.8370 C.3   299  STU299      0.1743
     34  N4       -10.7990  207.9170  118.9240 N.3   299  STU299     -0.2152
     35  C28      -10.1090  207.5630  120.1960 C.3   299  STU299      0.1075
@<TRIPOS>BOND
     1    24    23    2
     2    22    23    1
     3    22    21    2
     4    23    12    1
     5    21    13    1
     6    12    13   ar
     7    12    11   ar
     8    30    29   ar
     9    30    25   ar
    10    13    14   ar
    11    29    28   ar
    12    11    25   ar
    13    11    10   ar
    14    25    26   ar
    15    14    15   ar
    16    14     9   ar
    17    28    27   ar
    18    20    15   ar
    19    20    19   ar
    20    15    16   ar
    21    10     9   ar
    22    10    31   ar
    23    26    27   ar
    24    26    31   ar
    25     9     8   ar
    26    19    18   ar
    27    31     2    1
    28    16     8   ar
    29    16    17   ar
    30     8     6    1
    31    18    17   ar
    32     2     1    1
    33     2     3    1
    34    33    32    1
    35     1     6    1
    36    32     5    1
    37     6     5    1
    38     6     7    1
    39     3     4    1
    40     5     4    1
    41     4    34    1
    42    34    35    1
