# created with PyMOL 2.5.0
@<TRIPOS>MOLECULE
lig
34 36 1                 
SMALL
USER_CHARGES
@<TRIPOS>ATOM
1	  C1	7.226	0.187	17.759	C.2	1	RPR265	0.000	
2	  C2	7.943	0.841	18.792	C.2	1	RPR265	0.000	
3	  C3	9.333	0.583	18.892	C.2	1	RPR265	0.000	
4	  C4	9.999	-0.293	17.998	C.2	1	RPR265	0.000	
5	  C5	9.275	-0.942	16.970	C.2	1	RPR265	0.000	
6	  C6	7.880	-0.701	16.848	C.2	1	RPR265	0.000	
7	  C7	7.136	3.972	20.903	C.2	1	RPR265	0.000	
8	  C8	5.942	3.598	21.586	C.2	1	RPR265	0.000	
9	  C9	5.412	2.294	21.334	C.2	1	RPR265	0.000	
10	 C10	6.062	1.408	20.432	C.2	1	RPR265	0.000	
11	 C11	7.249	1.784	19.755	C.2	1	RPR265	0.000	
12	 C12	7.770	3.080	20.009	C.2	1	RPR265	0.000	
13	 C13	5.273	4.535	22.531	C.2	1	RPR265	0.000	
14	 N14	5.485	5.874	22.293	N.pl3	1	RPR265	0.000	
15	 C15	4.913	6.941	23.124	C.3	1	RPR265	0.000	
16	 C16	4.446	8.075	22.197	C.3	1	RPR265	0.000	
17	 C17	5.991	7.410	24.173	C.3	1	RPR265	0.000	
18	 C18	5.371	8.530	25.053	C.2	1	RPR265	0.000	
19	 O19	4.105	8.152	25.593	O.3	1	RPR265	0.000	
20	 C20	7.293	7.922	23.454	C.3	1	RPR265	0.000	
21	 C21	7.091	-1.380	15.764	C.3	1	RPR265	0.000	
22	 N22	6.726	-0.438	14.700	N.3	1	RPR265	0.000	
23	 C23	8.814	7.376	25.475	C.2	1	RPR265	0.000	
24	 C24	9.987	7.613	26.234	C.2	1	RPR265	0.000	
25	 C25	10.893	8.626	25.819	C.2	1	RPR265	0.000	
26	 C26	10.626	9.384	24.663	C.2	1	RPR265	0.000	
27	 C27	9.458	9.141	23.914	C.2	1	RPR265	0.000	
28	 C28	8.536	8.136	24.306	C.2	1	RPR265	0.000	
29	 C29	10.269	6.828	27.441	C.2	1	RPR265	0.000	
30	 N30	11.537	6.657	27.865	N.pl3	1	RPR265	0.000	
31	 N31	9.264	6.276	28.136	N.pl3	1	RPR265	0.000	
32	 O32	5.833	9.628	25.193	O.co2	1	RPR265	0.000	
33	 O33	4.577	4.147	23.476	O.2	1	RPR265	0.000	
34	 C34	3.321	9.116	26.312	C.3	1	RPR265	0.000	
@<TRIPOS>BOND
1 1 2 ar
2 1 6 ar
3 2 3 ar
4 2 11 1
5 3 4 ar
6 4 5 ar
7 5 6 ar
8 6 21 1
9 7 8 ar
10 7 12 ar
11 8 9 ar
12 8 13 1
13 9 10 ar
14 10 11 ar
15 11 12 ar
16 13 14 1
17 13 33 2
18 14 15 1
19 15 16 1
20 15 17 1
21 17 18 1
22 17 20 1
23 18 19 1
24 18 32 2
25 19 34 1
26 20 28 1
27 21 22 1
28 23 24 ar
29 23 28 ar
30 24 25 ar
31 24 29 1
32 25 26 ar
33 26 27 ar
34 27 28 ar
35 29 30 ar
36 29 31 ar
@<TRIPOS>SUBSTRUCTURE
1	RPR265	1	GROUP	1 A	RPR
