# created with PyMOL 2.5.0
@<TRIPOS>MOLECULE
lig
31 35 1                 
SMALL
USER_CHARGES
@<TRIPOS>ATOM
1	  C1	7.612	9.003	22.772	C.2	1	815401	0.000	
2	  C2	8.959	9.331	23.070	C.2	1	815401	0.000	
3	  C3	9.616	8.757	24.209	C.2	1	815401	0.000	
4	  C4	8.918	7.824	25.089	C.2	1	815401	0.000	
5	  C5	7.579	7.482	24.816	C.2	1	815401	0.000	
6	  C6	6.877	8.096	23.598	C.2	1	815401	0.000	
7	 C10	10.971	9.095	24.488	C.2	1	815401	0.000	
8	 C11	11.573	8.503	25.615	C.2	1	815401	0.000	
9	 N12	10.922	7.623	26.449	N.2	1	815401	0.000	
10	 C13	9.612	7.280	26.202	C.2	1	815401	0.000	
11	 C16	7.619	0.946	19.598	C.2	1	815401	0.000	
12	 C17	8.897	0.794	19.078	C.2	1	815401	0.000	
13	 C18	9.110	0.272	17.773	C.2	1	815401	0.000	
14	 C19	7.981	-0.092	16.998	C.2	1	815401	0.000	
15	 N20	6.717	0.048	17.492	N.2	1	815401	0.000	
16	 C21	6.510	0.556	18.762	C.2	1	815401	0.000	
17	 C25	5.249	0.784	19.470	C.2	1	815401	0.000	
18	 C26	5.446	1.318	20.753	C.2	1	815401	0.000	
19	 S27	7.114	1.536	21.100	S.2	1	815401	0.000	
20	 N28	5.399	6.430	22.555	N.pl3	1	815401	0.000	
21	 C29	4.908	5.264	23.030	C.2	1	815401	0.000	
22	 C30	5.055	4.208	21.948	C.3	1	815401	0.000	
23	 C31	5.279	5.044	20.682	C.3	1	815401	0.000	
24	 C32	5.901	6.334	21.180	C.3	1	815401	0.000	
25	 N37	3.863	3.395	21.857	N.3	1	815401	0.000	
26	 S38	4.062	1.674	21.763	S.o2	1	815401	0.000	
27	 O39	2.819	1.308	21.120	O.2	1	815401	0.000	
28	 O40	4.324	1.281	23.123	O.2	1	815401	0.000	
29	 O41	4.427	5.060	24.138	O.2	1	815401	0.000	
30	 N42	9.053	6.415	27.066	N.pl3	1	815401	0.000	
31	 C43	5.458	7.695	23.307	C.3	1	815401	0.000	
@<TRIPOS>BOND
1 1 2 ar
2 1 6 ar
3 2 3 ar
4 3 4 ar
5 3 7 ar
6 4 5 ar
7 4 10 ar
8 5 6 ar
9 6 31 1
10 7 8 ar
11 8 9 ar
12 9 10 ar
13 10 30 1
14 11 12 ar
15 11 16 ar
16 11 19 ar
17 12 13 ar
18 13 14 ar
19 14 15 ar
20 15 16 ar
21 16 17 ar
22 17 18 ar
23 18 19 ar
24 18 26 1
25 20 21 1
26 20 24 1
27 20 31 1
28 21 22 1
29 21 29 2
30 22 23 1
31 22 25 1
32 23 24 1
33 25 26 1
34 26 27 2
35 26 28 2
@<TRIPOS>SUBSTRUCTURE
1	815401	1	GROUP	1 A	815
