# created with PyMOL 2.5.0
@<TRIPOS>MOLECULE
lig
29 33 1                 
SMALL
USER_CHARGES
@<TRIPOS>ATOM
1	  C1	5.571	7.930	23.478	C.3	1	PR2401	0.000	
2	  C2	9.026	8.637	24.658	C.2	1	PR2401	0.000	
3	  C3	10.356	9.138	24.777	C.2	1	PR2401	0.000	
4	  C4	11.130	8.687	25.888	C.2	1	PR2401	0.000	
5	  C5	8.501	7.704	25.644	C.2	1	PR2401	0.000	
6	  N5	10.594	7.810	26.794	N.2	1	PR2401	0.000	
7	  C6	9.337	7.304	26.728	C.2	1	PR2401	0.000	
8	 C16	7.744	1.113	19.638	C.2	1	PR2401	0.000	
9	 C17	9.069	0.884	19.177	C.2	1	PR2401	0.000	
10	 C18	9.266	0.373	17.851	C.2	1	PR2401	0.000	
11	 C19	8.106	0.120	17.049	C.2	1	PR2401	0.000	
12	 N20	6.835	0.348	17.520	N.2	1	PR2401	0.000	
13	 C21	6.648	0.842	18.814	C.2	1	PR2401	0.000	
14	 C25	5.357	1.094	19.366	C.2	1	PR2401	0.000	
15	 C26	5.571	1.585	20.684	C.2	1	PR2401	0.000	
16	 C27	8.011	8.860	23.714	C.2	1	PR2401	0.000	
17	 S27	7.221	1.698	21.123	S.2	1	PR2401	0.000	
18	 C28	6.924	8.073	24.145	C.2	1	PR2401	0.000	
19	 N28	5.603	6.670	22.733	N.pl3	1	PR2401	0.000	
20	 C29	5.031	5.499	23.101	C.2	1	PR2401	0.000	
21	 N29	7.209	7.398	25.274	N.pl3	1	PR2401	0.000	
22	 C30	5.362	4.491	22.027	C.3	1	PR2401	0.000	
23	 C31	5.831	5.329	20.834	C.3	1	PR2401	0.000	
24	 C32	6.321	6.609	21.463	C.3	1	PR2401	0.000	
25	 N37	4.198	3.716	21.616	N.3	1	PR2401	0.000	
26	 S38	4.263	2.085	21.683	S.o2	1	PR2401	0.000	
27	 O39	2.977	1.782	21.136	O.2	1	PR2401	0.000	
28	 O40	4.560	1.783	23.056	O.2	1	PR2401	0.000	
29	 O41	4.381	5.289	24.118	O.2	1	PR2401	0.000	
@<TRIPOS>BOND
1 1 18 1
2 2 3 ar
3 2 16 ar
4 3 4 ar
5 4 6 ar
6 2 5 ar
7 5 7 ar
8 5 21 ar
9 6 7 ar
10 8 9 ar
11 8 13 ar
12 8 17 ar
13 9 10 ar
14 10 11 ar
15 11 12 ar
16 12 13 ar
17 13 14 ar
18 14 15 ar
19 15 17 ar
20 15 26 1
21 16 18 ar
22 18 21 ar
23 1 19 1
24 19 20 1
25 19 24 1
26 20 22 1
27 20 29 2
28 22 23 1
29 22 25 1
30 23 24 1
31 25 26 1
32 26 27 2
33 26 28 2
@<TRIPOS>SUBSTRUCTURE
1	PR2401	1	GROUP	1 A	PR2
