# created with PyMOL 2.5.0
@<TRIPOS>MOLECULE
lig
39 42 1                 
SMALL
USER_CHARGES
@<TRIPOS>ATOM
1	  N1	11.825	7.044	27.802	N.pl3	1	DX9265	0.000	
2	  C2	10.576	6.854	27.356	C.2	1	DX9265	0.000	
3	  N2	9.742	6.020	27.981	N.pl3	1	DX9265	0.000	
4	  C4	10.139	7.522	26.221	C.2	1	DX9265	0.000	
5	  C5	10.944	8.421	25.500	C.2	1	DX9265	0.000	
6	  C6	10.518	8.954	24.280	C.2	1	DX9265	0.000	
7	  C7	9.250	8.635	23.793	C.2	1	DX9265	0.000	
8	  C8	8.426	7.777	24.532	C.2	1	DX9265	0.000	
9	  C9	8.863	7.293	25.736	C.2	1	DX9265	0.000	
10	 C10	8.808	9.133	22.563	C.2	1	DX9265	0.000	
11	 C11	7.536	8.782	22.096	C.2	1	DX9265	0.000	
12	 C12	7.176	7.452	24.064	C.2	1	DX9265	0.000	
13	 C13	6.689	7.977	22.883	C.2	1	DX9265	0.000	
14	 C14	5.247	7.661	22.523	C.3	1	DX9265	0.000	
15	 C15	4.954	7.288	21.075	C.3	1	DX9265	0.000	
16	 C16	5.837	6.107	20.681	C.2	1	DX9265	0.000	
17	 C17	6.737	6.286	19.636	C.2	1	DX9265	0.000	
18	 C18	7.622	5.265	19.316	C.2	1	DX9265	0.000	
19	 C19	7.594	4.071	20.042	C.2	1	DX9265	0.000	
20	 C20	6.687	3.887	21.080	C.2	1	DX9265	0.000	
21	 C21	5.799	4.906	21.398	C.2	1	DX9265	0.000	
22	 C22	3.434	7.189	20.939	C.2	1	DX9265	0.000	
23	 O23	2.863	6.115	21.149	O.co2	1	DX9265	0.000	
24	 O24	2.830	8.228	20.662	O.co2	1	DX9265	0.000	
25	 O25	8.520	3.005	19.738	O.3	1	DX9265	0.000	
26	 C26	8.718	2.439	18.486	C.3	1	DX9265	0.000	
27	 C27	7.425	2.226	17.736	C.3	1	DX9265	0.000	
28	 N28	7.699	1.086	16.870	N.3	1	DX9265	0.000	
29	 C29	8.899	0.315	17.217	C.3	1	DX9265	0.000	
30	 C30	9.282	1.070	18.465	C.3	1	DX9265	0.000	
31	 C31	6.903	0.799	15.845	C.3	1	DX9265	0.000	
32	 N32	7.048	-0.351	15.211	N.3	1	DX9265	0.000	
33	 C33	5.754	1.694	15.378	C.3	1	DX9265	0.000	
34	HN11	12.196	6.595	28.611	 H	1	DX9265	0.000	
35	HN12	12.417	7.668	27.290	 H	1	DX9265	0.000	
36	HN21	9.959	5.496	28.793	 H	1	DX9265	0.000	
37	HN22	8.790	5.968	27.643	 H	1	DX9265	0.000	
38	HN31	7.920	-0.789	15.172	 H	1	DX9265	0.000	
39	HN32	6.248	-0.716	14.779	 H	1	DX9265	0.000	
@<TRIPOS>BOND
1 1 34 1
2 1 35 1
3 1 2 ar
4 2 3 ar
5 3 36 1
6 3 37 1
7 2 4 1
8 4 9 ar
9 4 5 ar
10 5 6 ar
11 6 7 ar
12 7 8 ar
13 8 9 ar
14 7 10 ar
15 10 11 ar
16 8 12 ar
17 12 13 ar
18 11 13 ar
19 13 14 1
20 14 15 1
21 15 16 1
22 16 17 ar
23 17 18 ar
24 18 19 ar
25 19 25 1
26 19 20 ar
27 16 21 ar
28 20 21 ar
29 15 22 1
30 22 23 ar
31 22 24 ar
32 25 26 1
33 26 30 1
34 26 27 1
35 27 28 1
36 28 29 1
37 28 31 1
38 29 30 1
39 31 32 1
40 31 33 1
41 32 38 1
42 32 39 1
@<TRIPOS>SUBSTRUCTURE
1	DX9265	1	GROUP	1 A	DX9
