# created with PyMOL 2.5.0
@<TRIPOS>MOLECULE
lig
38 41 1                 
SMALL
USER_CHARGES
@<TRIPOS>ATOM
1	  C1	5.736	8.717	22.459	C.2	1	Z34500	0.000	
2	  O1	7.342	8.568	24.222	O.3	1	Z34500	0.000	
3	  C2	5.287	8.213	21.216	C.2	1	Z34500	0.000	
4	  O2	7.832	5.681	20.684	O.3	1	Z34500	0.000	
5	  C3	6.023	7.156	20.615	C.2	1	Z34500	0.000	
6	  C4	7.156	6.642	21.258	C.2	1	Z34500	0.000	
7	  N5	7.524	7.147	22.423	N.2	1	Z34500	0.000	
8	  C6	6.879	8.141	23.054	C.2	1	Z34500	0.000	
9	 C11	8.620	8.596	24.600	C.2	1	Z34500	0.000	
10	 N11	9.610	6.463	28.078	N.pl3	1	Z34500	0.000	
11	 O11	9.312	9.974	22.848	O.2	1	Z34500	0.000	
12	 C12	8.959	7.858	25.736	C.2	1	Z34500	0.000	
13	 N12	11.816	6.874	27.798	N.pl3	1	Z34500	0.000	
14	 C13	10.288	7.811	26.220	C.2	1	Z34500	0.000	
15	 C14	11.287	8.544	25.509	C.2	1	Z34500	0.000	
16	 C15	10.950	9.280	24.361	C.2	1	Z34500	0.000	
17	 C16	9.611	9.304	23.901	C.2	1	Z34500	0.000	
18	 C17	10.580	7.069	27.360	C.2	1	Z34500	0.000	
19	 C21	7.566	4.418	20.369	C.2	1	Z34500	0.000	
20	 N21	9.413	1.053	17.750	N.2	1	Z34500	0.000	
21	 C22	6.692	3.730	21.255	C.2	1	Z34500	0.000	
22	 N22	7.649	1.860	16.707	N.2	1	Z34500	0.000	
23	 C23	6.354	2.385	21.014	C.2	1	Z34500	0.000	
24	 C24	6.895	1.734	19.894	C.2	1	Z34500	0.000	
25	 C25	7.769	2.422	19.003	C.2	1	Z34500	0.000	
26	 C26	8.092	3.755	19.259	C.2	1	Z34500	0.000	
27	 C27	8.294	1.786	17.881	C.2	1	Z34500	0.000	
28	 C28	9.553	0.592	16.414	C.2	1	Z34500	0.000	
29	 C29	8.318	1.163	15.687	C.2	1	Z34500	0.000	
30	 C30	10.370	0.731	18.748	C.3	1	Z34500	0.000	
31	 N31	4.175	8.743	20.611	N.pl3	1	Z34500	0.000	
32	 C32	2.837	8.289	21.003	C.3	1	Z34500	0.000	
33	 C33	2.486	8.365	22.471	C.2	1	Z34500	0.000	
34	 O34	1.907	9.369	22.992	O.co2	1	Z34500	0.000	
35	 O35	2.780	7.311	23.293	O.co2	1	Z34500	0.000	
36	 C36	4.331	9.742	19.576	C.3	1	Z34500	0.000	
37	  F1	5.112	9.694	23.061	 F	1	Z34500	0.000	
38	  F2	5.672	6.656	19.479	 F	1	Z34500	0.000	
@<TRIPOS>BOND
1 1 3 ar
2 1 8 ar
3 1 37 1
4 2 9 1
5 3 5 ar
6 3 31 1
7 4 19 1
8 5 6 ar
9 5 38 1
10 4 6 1
11 6 7 ar
12 7 8 ar
13 2 8 1
14 9 12 ar
15 9 17 ar
16 11 17 2
17 12 14 ar
18 14 15 ar
19 14 18 1
20 15 16 ar
21 16 17 ar
22 10 18 ar
23 13 18 ar
24 19 21 ar
25 19 26 ar
26 20 28 ar
27 20 30 1
28 21 23 ar
29 22 29 ar
30 23 24 ar
31 24 25 ar
32 25 26 ar
33 25 27 1
34 20 27 ar
35 22 27 ar
36 28 29 ar
37 31 32 1
38 31 36 1
39 32 33 1
40 33 34 ar
41 33 35 ar
@<TRIPOS>SUBSTRUCTURE
1	Z34500	1	GROUP	1 A	Z34
