# created with PyMOL 2.5.0
@<TRIPOS>MOLECULE
lig
39 43 1                 
SMALL
USER_CHARGES
@<TRIPOS>ATOM
1	   N	8.796	9.763	22.794	N.pl3	1	T871	0.000	
2	   C	7.626	9.541	21.874	C.3	1	T871	0.000	
3	  OH	4.375	2.473	18.101	O.3	1	T871	0.000	
4	  C1	10.553	6.803	27.491	C.2	1	T871	0.000	
5	  N1	9.742	6.093	28.266	N.pl3	1	T871	0.000	
6	  C2	10.136	7.512	26.342	C.2	1	T871	0.000	
7	  N2	11.772	6.829	28.005	N.pl3	1	T871	0.000	
8	  O2	5.020	4.462	15.430	O.co2	1	T871	0.000	
9	  C3	8.718	7.550	25.957	C.2	1	T871	0.000	
10	 C3A	7.967	6.531	19.851	C.2	1	T871	0.000	
11	  N3	6.823	7.151	21.791	N.2	1	T871	0.000	
12	  O3	4.461	5.390	17.475	O.3	1	T871	0.000	
13	  C4	8.266	8.272	24.809	C.2	1	T871	0.000	
14	  N4	5.609	1.707	17.763	N.2	1	T871	0.000	
15	  C5	9.214	9.003	23.972	C.2	1	T871	0.000	
16	  N5	7.752	0.018	16.826	N.2	1	T871	0.000	
17	  C6	10.621	8.990	24.310	C.2	1	T871	0.000	
18	  C7	11.079	8.261	25.473	C.2	1	T871	0.000	
19	 C7A	7.059	6.110	20.934	C.2	1	T871	0.000	
20	  C8	7.596	8.150	21.184	C.2	1	T871	0.000	
21	  C9	5.344	1.722	20.807	C.3	1	T871	0.000	
22	  N9	8.330	7.876	19.999	N.2	1	T871	0.000	
23	 C10	8.361	5.567	18.819	C.2	1	T871	0.000	
24	 C11	7.863	4.236	18.881	C.2	1	T871	0.000	
25	 C12	6.956	3.767	19.947	C.2	1	T871	0.000	
26	 C13	6.549	4.739	20.985	C.2	1	T871	0.000	
27	 C14	9.232	8.742	19.155	C.3	1	T871	0.000	
28	 C15	6.709	1.561	21.462	C.3	1	T871	0.000	
29	 C16	6.606	2.191	20.063	C.3	1	T871	0.000	
30	 C17	6.613	1.545	18.598	C.2	1	T871	0.000	
31	 C18	7.863	0.754	18.062	C.2	1	T871	0.000	
32	 C19	9.140	0.752	18.753	C.2	1	T871	0.000	
33	 C20	10.249	0.017	18.192	C.2	1	T871	0.000	
34	 C21	10.123	-0.720	16.957	C.2	1	T871	0.000	
35	 C22	8.867	-0.719	16.268	C.2	1	T871	0.000	
36	 C23	3.792	3.014	16.904	C.3	1	T871	0.000	
37	 C24	4.475	4.352	16.543	C.2	1	T871	0.000	
38	 C25	4.814	7.747	18.000	C.3	1	T871	0.000	
39	 C26	5.130	6.593	17.030	C.3	1	T871	0.000	
@<TRIPOS>BOND
1 1 2 1
2 2 20 1
3 3 36 1
4 4 6 1
5 4 5 ar
6 6 9 ar
7 6 18 ar
8 4 7 ar
9 9 13 ar
10 10 19 ar
11 10 23 ar
12 11 19 ar
13 11 20 ar
14 12 39 1
15 13 15 ar
16 3 14 1
17 1 15 1
18 15 17 ar
19 16 31 ar
20 16 35 ar
21 17 18 ar
22 19 26 ar
23 20 22 ar
24 21 28 1
25 21 29 1
26 10 22 ar
27 22 27 1
28 23 24 ar
29 24 25 ar
30 25 26 ar
31 25 29 1
32 28 29 1
33 29 30 1
34 14 30 2
35 30 31 1
36 31 32 ar
37 32 33 ar
38 33 34 ar
39 34 35 ar
40 36 37 1
41 8 37 2
42 12 37 1
43 38 39 1
@<TRIPOS>SUBSTRUCTURE
1	T871	1	GROUP	1 A	T87
