# created with PyMOL 2.5.0
@<TRIPOS>MOLECULE
lig
32 36 1                 
SMALL
USER_CHARGES
@<TRIPOS>ATOM
1	   N	8.944	9.493	22.860	N.pl3	1	R111	0.000	
2	   C	7.828	9.213	21.931	C.3	1	R111	0.000	
3	  C1	10.214	6.819	27.739	C.2	1	R111	0.000	
4	  N1	9.316	6.350	28.574	N.pl3	1	R111	0.000	
5	  C2	9.906	7.476	26.545	C.2	1	R111	0.000	
6	  N2	11.432	6.536	28.149	N.pl3	1	R111	0.000	
7	  C3	8.624	7.318	25.922	C.2	1	R111	0.000	
8	 C3A	8.283	6.253	19.917	C.2	1	R111	0.000	
9	  N3	7.014	6.821	21.774	N.2	1	R111	0.000	
10	  C4	8.306	7.974	24.722	C.2	1	R111	0.000	
11	  N4	7.077	1.466	18.431	N.2	1	R111	0.000	
12	  C5	9.250	8.813	24.090	C.2	1	R111	0.000	
13	  C6	10.522	8.997	24.669	C.2	1	R111	0.000	
14	  C7	10.851	8.340	25.879	C.2	1	R111	0.000	
15	 C7A	7.319	5.806	20.896	C.2	1	R111	0.000	
16	  C8	7.832	7.830	21.253	C.2	1	R111	0.000	
17	  C9	6.777	2.143	19.745	C.3	1	R111	0.000	
18	  N9	8.638	7.578	20.130	N.2	1	R111	0.000	
19	 C10	8.745	5.351	18.905	C.2	1	R111	0.000	
20	 C11	8.244	4.044	18.877	C.2	1	R111	0.000	
21	 C12	7.292	3.592	19.836	C.2	1	R111	0.000	
22	 C13	6.821	4.467	20.854	C.2	1	R111	0.000	
23	 C14	9.584	8.455	19.385	C.3	1	R111	0.000	
24	 C15	6.306	1.280	17.259	C.2	1	R111	0.000	
25	 N16	6.813	0.608	16.148	N.2	1	R111	0.000	
26	 C17	8.067	0.316	16.644	C.2	1	R111	0.000	
27	 C18	8.230	0.817	17.994	C.2	1	R111	0.000	
28	 C19	9.138	-0.383	15.999	C.2	1	R111	0.000	
29	 C20	10.350	-0.570	16.697	C.2	1	R111	0.000	
30	 C21	10.517	-0.082	18.016	C.2	1	R111	0.000	
31	 C22	9.478	0.612	18.675	C.2	1	R111	0.000	
32	 C23	4.884	1.811	17.158	C.3	1	R111	0.000	
@<TRIPOS>BOND
1 1 2 1
2 2 16 1
3 3 5 1
4 3 4 ar
5 5 7 ar
6 5 14 ar
7 3 6 ar
8 7 10 ar
9 8 15 ar
10 8 19 ar
11 9 15 ar
12 9 16 ar
13 10 12 ar
14 11 24 ar
15 11 27 ar
16 1 12 1
17 12 13 ar
18 13 14 ar
19 15 22 ar
20 16 18 ar
21 11 17 1
22 8 18 ar
23 18 23 1
24 19 20 ar
25 20 21 ar
26 17 21 1
27 21 22 ar
28 24 25 ar
29 24 32 1
30 25 26 ar
31 26 27 ar
32 26 28 ar
33 27 31 ar
34 28 29 ar
35 29 30 ar
36 30 31 ar
@<TRIPOS>SUBSTRUCTURE
1	R111	1	GROUP	1 A	R11
