# created with PyMOL 2.5.0
@<TRIPOS>MOLECULE
lig
38 43 1                 
SMALL
USER_CHARGES
@<TRIPOS>ATOM
1	 CL7	14.086	7.030	27.122	Cl	1	XMA401	0.000	
2	  C1	8.257	8.182	25.614	C.2	1	XMA401	0.000	
3	  C2	7.916	8.764	24.326	C.2	1	XMA401	0.000	
4	  C3	10.778	8.222	24.957	C.2	1	XMA401	0.000	
5	  C4	10.412	8.811	23.650	C.2	1	XMA401	0.000	
6	  C5	9.023	9.075	23.345	C.2	1	XMA401	0.000	
7	  C6	9.633	7.895	25.984	C.2	1	XMA401	0.000	
8	  C8	9.981	7.312	27.297	C.2	1	XMA401	0.000	
9	  C9	12.147	7.934	25.348	C.2	1	XMA401	0.000	
10	 C10	11.353	7.058	27.613	C.2	1	XMA401	0.000	
11	 C11	12.437	7.361	26.657	C.2	1	XMA401	0.000	
12	 S12	6.238	8.963	23.933	S.o2	1	XMA401	0.000	
13	 O13	5.440	9.064	25.265	O.2	1	XMA401	0.000	
14	 O14	6.022	10.203	23.046	O.2	1	XMA401	0.000	
15	 C15	4.742	5.151	22.872	C.2	1	XMA401	0.000	
16	 O16	4.326	4.117	23.389	O.2	1	XMA401	0.000	
17	 C17	5.196	6.331	23.804	C.3	1	XMA401	0.000	
18	 N18	5.685	7.576	23.152	N.3	1	XMA401	0.000	
19	 C19	5.380	6.635	20.822	C.3	1	XMA401	0.000	
20	 C20	4.307	7.690	20.326	C.3	1	XMA401	0.000	
21	 O21	3.347	7.174	19.363	O.3	1	XMA401	0.000	
22	 C22	2.920	8.042	18.396	C.3	1	XMA401	0.000	
23	 C23	6.336	7.401	21.837	C.3	1	XMA401	0.000	
24	 N24	4.860	5.370	21.454	N.pl3	1	XMA401	0.000	
25	 C25	4.993	4.292	20.454	C.3	1	XMA401	0.000	
26	 C26	8.991	-0.077	15.712	C.2	1	XMA401	0.000	
27	 N27	7.470	2.234	18.456	N.pl3	1	XMA401	0.000	
28	 C28	8.366	1.266	17.740	C.2	1	XMA401	0.000	
29	 C29	8.107	0.852	16.341	C.2	1	XMA401	0.000	
30	 C30	7.753	2.656	19.921	C.3	1	XMA401	0.000	
31	 C31	9.556	0.670	18.394	C.2	1	XMA401	0.000	
32	 C32	6.223	2.850	17.764	C.3	1	XMA401	0.000	
33	 C33	6.200	4.766	19.578	C.3	1	XMA401	0.000	
34	 O34	6.150	6.219	19.697	O.3	1	XMA401	0.000	
35	 C35	7.597	4.198	20.095	C.3	1	XMA401	0.000	
36	 N36	10.095	-0.616	16.353	N.2	1	XMA401	0.000	
37	 C37	10.372	-0.253	17.660	C.2	1	XMA401	0.000	
38	 C38	6.100	4.387	18.048	C.3	1	XMA401	0.000	
@<TRIPOS>BOND
1 1 11 1
2 2 3 ar
3 2 7 ar
4 3 6 ar
5 3 12 1
6 4 5 ar
7 4 7 ar
8 4 9 ar
9 5 6 ar
10 7 8 ar
11 8 10 ar
12 9 11 ar
13 10 11 ar
14 12 13 2
15 12 14 2
16 12 18 1
17 15 16 2
18 15 17 1
19 15 24 1
20 17 18 1
21 18 23 1
22 19 20 1
23 19 23 1
24 19 24 1
25 19 34 1
26 20 21 1
27 21 22 1
28 24 25 1
29 25 33 1
30 26 29 ar
31 26 36 ar
32 27 28 1
33 27 30 1
34 27 32 1
35 28 29 ar
36 28 31 ar
37 30 35 1
38 31 37 ar
39 32 38 1
40 33 34 1
41 33 35 1
42 33 38 1
43 36 37 ar
@<TRIPOS>SUBSTRUCTURE
1	XMA401	1	GROUP	1 A	XMA
