# created with PyMOL 2.5.0
@<TRIPOS>MOLECULE
lig
41 45 1                 
SMALL
USER_CHARGES
@<TRIPOS>ATOM
1	CL21	14.321	7.080	26.640	Cl	1	XMB401	0.000	
2	  C1	7.542	7.084	21.258	C.3	1	XMB401	0.000	
3	  O2	8.149	6.277	21.960	O.3	1	XMB401	0.000	
4	  N3	8.099	7.516	20.073	N.3	1	XMB401	0.000	
5	  C4	9.384	8.311	20.078	C.3	1	XMB401	0.000	
6	  C5	9.082	9.818	20.022	C.3	1	XMB401	0.000	
7	  S6	8.133	10.200	18.527	S.o2	1	XMB401	0.000	
8	  O7	8.834	9.763	17.189	O.2	1	XMB401	0.000	
9	  O8	7.788	11.738	18.450	O.2	1	XMB401	0.000	
10	  C9	7.233	7.709	18.859	C.3	1	XMB401	0.000	
11	 C10	6.706	9.155	18.805	C.3	1	XMB401	0.000	
12	 C11	8.491	8.022	26.293	C.2	1	XMB401	0.000	
13	 C12	7.933	8.473	25.099	C.2	1	XMB401	0.000	
14	 C13	10.698	8.040	25.205	C.2	1	XMB401	0.000	
15	 C14	10.112	8.491	24.019	C.2	1	XMB401	0.000	
16	 C15	8.729	8.711	23.958	C.2	1	XMB401	0.000	
17	 C16	9.862	7.800	26.371	C.2	1	XMB401	0.000	
18	 C17	10.434	7.352	27.559	C.2	1	XMB401	0.000	
19	 C18	12.064	7.815	25.299	C.2	1	XMB401	0.000	
20	 C19	11.800	7.137	27.630	C.2	1	XMB401	0.000	
21	 C20	12.605	7.366	26.514	C.2	1	XMB401	0.000	
22	 S22	6.198	8.750	25.027	S.o2	1	XMB401	0.000	
23	 O23	5.417	7.758	25.976	O.2	1	XMB401	0.000	
24	 N24	5.729	8.548	23.409	N.3	1	XMB401	0.000	
25	 C25	6.004	7.048	21.452	C.3	1	XMB401	0.000	
26	 C26	5.547	7.200	22.905	C.3	1	XMB401	0.000	
27	 N27	5.379	5.866	20.776	N.3	1	XMB401	0.000	
28	 O28	5.843	10.242	25.434	O.2	1	XMB401	0.000	
29	 C29	5.439	4.512	21.404	C.3	1	XMB401	0.000	
30	 C30	10.561	-0.200	17.033	C.2	1	XMB401	0.000	
31	 N31	7.758	1.956	18.454	N.pl3	1	XMB401	0.000	
32	 C32	8.507	0.945	17.651	C.2	1	XMB401	0.000	
33	 C33	9.900	0.764	17.809	C.2	1	XMB401	0.000	
34	 C34	6.268	2.175	18.322	C.3	1	XMB401	0.000	
35	 C35	7.856	0.121	16.701	C.2	1	XMB401	0.000	
36	 C36	8.446	2.835	19.469	C.3	1	XMB401	0.000	
37	 C37	6.196	3.466	20.552	C.3	1	XMB401	0.000	
38	 C38	5.536	3.229	19.186	C.3	1	XMB401	0.000	
39	 N39	9.906	-0.944	16.157	N.2	1	XMB401	0.000	
40	 C40	8.603	-0.814	15.973	C.2	1	XMB401	0.000	
41	 C41	7.651	3.866	20.303	C.3	1	XMB401	0.000	
@<TRIPOS>BOND
1 2 3 1
2 2 4 1
3 2 25 1
4 4 5 1
5 4 10 1
6 5 6 1
7 6 7 1
8 7 8 2
9 7 9 2
10 7 11 1
11 10 11 1
12 12 13 ar
13 12 17 ar
14 13 16 ar
15 13 22 1
16 14 15 ar
17 14 17 ar
18 14 19 ar
19 15 16 ar
20 17 18 ar
21 18 20 ar
22 19 21 ar
23 20 21 ar
24 1 21 1
25 22 23 2
26 22 24 1
27 22 28 2
28 24 26 1
29 25 26 1
30 25 27 1
31 27 29 1
32 29 37 1
33 30 33 ar
34 30 39 ar
35 31 32 1
36 31 34 1
37 31 36 1
38 32 33 ar
39 32 35 ar
40 34 38 1
41 35 40 ar
42 36 41 1
43 37 38 1
44 37 41 1
45 39 40 ar
@<TRIPOS>SUBSTRUCTURE
1	XMB401	1	GROUP	1 A	XMB
