# created with PyMOL 2.5.0
@<TRIPOS>MOLECULE
lig
39 43 1                 
SMALL
USER_CHARGES
@<TRIPOS>ATOM
1	 CL7	14.310	6.796	26.902	Cl	1	XMD401	0.000	
2	  C1	8.372	8.157	25.788	C.2	1	XMD401	0.000	
3	  C2	7.961	8.728	24.513	C.2	1	XMD401	0.000	
4	  C3	10.824	8.077	24.993	C.2	1	XMD401	0.000	
5	  C4	10.385	8.654	23.706	C.2	1	XMD401	0.000	
6	  C5	9.001	8.966	23.483	C.2	1	XMD401	0.000	
7	  C6	9.767	7.820	26.074	C.2	1	XMD401	0.000	
8	  C8	10.203	7.246	27.360	C.2	1	XMD401	0.000	
9	  C9	12.225	7.743	25.287	C.2	1	XMD401	0.000	
10	 C10	11.584	6.941	27.592	C.2	1	XMD401	0.000	
11	 C11	12.617	7.182	26.567	C.2	1	XMD401	0.000	
12	 S12	6.277	9.129	24.204	S.o2	1	XMD401	0.000	
13	 O13	5.469	9.211	25.520	O.2	1	XMD401	0.000	
14	 C14	4.681	5.557	22.803	C.3	1	XMD401	0.000	
15	 C15	4.735	4.121	23.369	C.2	1	XMD401	0.000	
16	 O16	3.701	3.853	24.244	O.3	1	XMD401	0.000	
17	 C17	2.853	2.661	24.023	C.3	1	XMD401	0.000	
18	 C18	1.372	3.012	24.259	C.3	1	XMD401	0.000	
19	 O19	5.589	3.313	23.046	O.co2	1	XMD401	0.000	
20	 C20	5.680	6.496	23.573	C.3	1	XMD401	0.000	
21	 N21	5.518	7.940	23.206	N.3	1	XMD401	0.000	
22	 C22	5.009	7.095	20.745	C.2	1	XMD401	0.000	
23	 O23	5.001	7.379	19.547	O.2	1	XMD401	0.000	
24	 C24	5.450	8.229	21.738	C.3	1	XMD401	0.000	
25	 N25	4.658	5.798	21.286	N.pl3	1	XMD401	0.000	
26	 O26	6.171	10.488	23.489	O.2	1	XMD401	0.000	
27	 C27	4.243	4.684	20.347	C.3	1	XMD401	0.000	
28	 C28	10.468	0.035	17.854	C.2	1	XMD401	0.000	
29	 N29	7.075	1.440	19.226	N.pl3	1	XMD401	0.000	
30	 C30	8.091	0.650	18.430	C.2	1	XMD401	0.000	
31	 C31	9.550	0.810	18.641	C.2	1	XMD401	0.000	
32	 C32	5.574	1.296	19.021	C.3	1	XMD401	0.000	
33	 C33	7.686	-0.328	17.384	C.2	1	XMD401	0.000	
34	 C34	7.466	2.456	20.286	C.3	1	XMD401	0.000	
35	 C35	5.340	3.936	19.511	C.3	1	XMD401	0.000	
36	 C36	4.796	2.631	18.777	C.3	1	XMD401	0.000	
37	 N37	10.054	-0.868	16.886	N.2	1	XMD401	0.000	
38	 C38	8.700	-1.046	16.657	C.2	1	XMD401	0.000	
39	 C39	6.817	3.876	20.128	C.3	1	XMD401	0.000	
@<TRIPOS>BOND
1 1 11 1
2 2 3 ar
3 2 7 ar
4 3 6 ar
5 3 12 1
6 4 5 ar
7 4 7 ar
8 4 9 ar
9 5 6 ar
10 7 8 ar
11 8 10 ar
12 9 11 ar
13 10 11 ar
14 12 13 2
15 12 21 1
16 12 26 2
17 14 15 1
18 14 20 1
19 14 25 1
20 15 16 1
21 15 19 2
22 16 17 1
23 17 18 1
24 20 21 1
25 21 24 1
26 22 23 2
27 22 24 1
28 22 25 1
29 25 27 1
30 27 35 1
31 28 31 ar
32 28 37 ar
33 29 30 1
34 29 32 1
35 29 34 1
36 30 31 ar
37 30 33 ar
38 32 36 1
39 33 38 ar
40 34 39 1
41 35 36 1
42 35 39 1
43 37 38 ar
@<TRIPOS>SUBSTRUCTURE
1	XMD401	1	GROUP	1 A	XMD
