# created with PyMOL 2.5.0
@<TRIPOS>MOLECULE
data/CDK2/cocry_dataset/1aq1_STU_LIG.pdb
35 42 1                 
SMALL
USER_CHARGES
@<TRIPOS>ATOM
1	  O1	-13.288	203.691	116.897	O.3	1	UNK0	0.000	
2	  C1	-12.259	204.206	117.744	C.3	1	UNK0	0.000	
3	  C2	-12.976	204.893	118.955	C.3	1	UNK0	0.000	
4	  C3	-14.250	205.696	118.579	C.3	1	UNK0	0.000	
5	  C4	-14.154	206.114	117.093	C.3	1	UNK0	0.000	
6	  C5	-14.086	204.722	116.263	C.3	1	UNK0	0.000	
7	  C6	-15.488	204.085	116.244	C.3	1	UNK0	0.000	
8	  N1	-13.505	204.853	114.938	N.pl3	1	UNK0	0.000	
9	  C7	-12.211	205.184	114.686	C.2	1	UNK0	0.000	
10	  C8	-11.234	205.339	115.656	C.2	1	UNK0	0.000	
11	  C9	-10.231	206.238	115.251	C.2	1	UNK0	0.000	
12	 C10	-9.908	206.792	114.015	C.2	1	UNK0	0.000	
13	 C11	-10.756	206.403	112.979	C.2	1	UNK0	0.000	
14	 C12	-11.864	205.646	113.413	C.2	1	UNK0	0.000	
15	 C13	-13.064	205.466	112.700	C.2	1	UNK0	0.000	
16	 C14	-14.061	204.979	113.641	C.2	1	UNK0	0.000	
17	 C15	-15.370	204.737	113.174	C.2	1	UNK0	0.000	
18	 C16	-15.707	204.975	111.840	C.2	1	UNK0	0.000	
19	 C17	-14.767	205.450	110.945	C.2	1	UNK0	0.000	
20	 C18	-13.458	205.699	111.362	C.2	1	UNK0	0.000	
21	 C19	-10.248	207.036	111.841	C.2	1	UNK0	0.000	
22	  N2	-9.201	207.754	112.103	N.2	1	UNK0	0.000	
23	 C20	-8.909	207.667	113.477	C.2	1	UNK0	0.000	
24	  O2	-7.977	208.254	114.013	O.2	1	UNK0	0.000	
25	 C21	-9.663	206.560	116.481	C.2	1	UNK0	0.000	
26	 C22	-10.032	205.504	117.396	C.2	1	UNK0	0.000	
27	 C23	-9.159	205.227	118.458	C.2	1	UNK0	0.000	
28	 C24	-8.183	206.190	118.770	C.2	1	UNK0	0.000	
29	 C25	-8.147	207.424	118.127	C.2	1	UNK0	0.000	
30	 C26	-8.872	207.613	116.961	C.2	1	UNK0	0.000	
31	  N3	-11.253	204.927	116.968	N.pl3	1	UNK0	0.000	
32	  N4	-14.603	206.830	119.455	N.3	1	UNK0	0.000	
33	 C27	-14.481	206.600	120.883	C.3	1	UNK0	0.000	
34	  O3	-13.026	206.959	116.811	O.3	1	UNK0	0.000	
35	 C28	-13.183	208.247	116.251	C.3	1	UNK0	0.000	
@<TRIPOS>BOND
1 1 2 1
2 1 6 1
3 2 3 1
4 2 31 1
5 3 4 1
6 4 5 1
7 4 32 1
8 5 6 1
9 5 34 1
10 6 7 1
11 6 8 1
12 8 9 1
13 8 16 1
14 9 10 1
15 9 14 2
16 10 11 2
17 10 31 1
18 11 12 1
19 11 25 1
20 12 13 2
21 12 23 1
22 13 14 1
23 13 21 1
24 14 15 1
25 15 16 1
26 15 20 2
27 16 17 2
28 17 18 1
29 18 19 2
30 19 20 1
31 21 22 2
32 22 23 1
33 23 24 2
34 25 26 1
35 25 30 2
36 26 27 2
37 26 31 1
38 27 28 1
39 28 29 2
40 29 30 1
41 32 33 1
42 34 35 1
@<TRIPOS>SUBSTRUCTURE
1	UNK0	1	GROUP	1 ****	UNK
