# created with PyMOL 2.5.0
@<TRIPOS>MOLECULE
data/CDK2/cocry_dataset/1aq1_STU_LIG.pdb
35 42 1                 
SMALL
USER_CHARGES
@<TRIPOS>ATOM
1	  O1	-10.269	208.721	115.899	O.3	1	UNK0	0.000	
2	  C1	-10.839	208.339	117.152	C.3	1	UNK0	0.000	
3	  C2	-9.686	207.689	117.991	C.3	1	UNK0	0.000	
4	  C3	-8.733	206.775	117.175	C.3	1	UNK0	0.000	
5	  C4	-9.483	206.263	115.924	C.3	1	UNK0	0.000	
6	  C5	-9.863	207.595	115.080	C.3	1	UNK0	0.000	
7	  C6	-8.591	208.130	114.396	C.3	1	UNK0	0.000	
8	  N1	-10.969	207.413	114.157	N.pl3	1	UNK0	0.000	
9	  C7	-12.253	207.157	114.523	C.2	1	UNK0	0.000	
10	  C8	-12.710	207.138	115.830	C.2	1	UNK0	0.000	
11	  C9	-13.819	206.285	115.986	C.2	1	UNK0	0.000	
12	 C10	-14.668	205.670	115.070	C.2	1	UNK0	0.000	
13	 C11	-14.347	205.926	113.737	C.2	1	UNK0	0.000	
14	 C12	-13.137	206.633	113.575	C.2	1	UNK0	0.000	
15	 C13	-12.366	206.678	112.398	C.2	1	UNK0	0.000	
16	 C14	-11.043	207.159	112.765	C.2	1	UNK0	0.000	
17	 C15	-10.063	207.276	111.756	C.2	1	UNK0	0.000	
18	 C16	-10.352	206.923	110.436	C.2	1	UNK0	0.000	
19	 C17	-11.604	206.454	110.086	C.2	1	UNK0	0.000	
20	 C18	-12.605	206.326	111.050	C.2	1	UNK0	0.000	
21	 C19	-15.322	205.252	112.996	C.2	1	UNK0	0.000	
22	  N2	-16.171	204.630	113.751	N.2	1	UNK0	0.000	
23	 C20	-15.830	204.832	115.102	C.2	1	UNK0	0.000	
24	  O2	-16.451	204.350	116.041	O.2	1	UNK0	0.000	
25	 C21	-13.800	206.090	117.364	C.2	1	UNK0	0.000	
26	 C22	-13.033	207.178	117.926	C.2	1	UNK0	0.000	
27	 C23	-13.344	207.588	119.231	C.2	1	UNK0	0.000	
28	 C24	-14.115	206.720	120.024	C.2	1	UNK0	0.000	
29	 C25	-14.469	205.450	119.578	C.2	1	UNK0	0.000	
30	 C26	-14.335	205.130	118.235	C.2	1	UNK0	0.000	
31	  N3	-12.105	207.638	116.959	N.pl3	1	UNK0	0.000	
32	  N4	-8.068	205.683	117.913	N.3	1	UNK0	0.000	
33	 C27	-8.706	205.260	119.146	C.3	1	UNK0	0.000	
34	  O3	-10.648	205.481	116.239	O.3	1	UNK0	0.000	
35	 C28	-10.762	204.128	115.850	C.3	1	UNK0	0.000	
@<TRIPOS>BOND
1 1 2 1
2 1 6 1
3 2 3 1
4 2 31 1
5 3 4 1
6 4 5 1
7 4 32 1
8 5 6 1
9 5 34 1
10 6 7 1
11 6 8 1
12 8 9 1
13 8 16 1
14 9 10 1
15 9 14 2
16 10 11 2
17 10 31 1
18 11 12 1
19 11 25 1
20 12 13 2
21 12 23 1
22 13 14 1
23 13 21 1
24 14 15 1
25 15 16 1
26 15 20 2
27 16 17 2
28 17 18 1
29 18 19 2
30 19 20 1
31 21 22 2
32 22 23 1
33 23 24 2
34 25 26 1
35 25 30 2
36 26 27 2
37 26 31 1
38 27 28 1
39 28 29 2
40 29 30 1
41 32 33 1
42 34 35 1
@<TRIPOS>SUBSTRUCTURE
1	UNK0	1	GROUP	1 ****	UNK
