# created with PyMOL 2.5.0
@<TRIPOS>MOLECULE
data/CDK2/cocry_dataset/1aq1_STU_LIG.pdb
35 42 1                 
SMALL
USER_CHARGES
@<TRIPOS>ATOM
1	  O1	-9.854	208.387	116.855	O.3	1	UNK0	0.000	
2	  C1	-11.243	208.078	116.985	C.3	1	UNK0	0.000	
3	  C2	-11.368	207.066	118.174	C.3	1	UNK0	0.000	
4	  C3	-10.248	205.992	118.227	C.3	1	UNK0	0.000	
5	  C4	-9.661	205.814	116.808	C.3	1	UNK0	0.000	
6	  C5	-9.049	207.264	116.415	C.3	1	UNK0	0.000	
7	  C6	-7.738	207.478	117.193	C.3	1	UNK0	0.000	
8	  N1	-8.901	207.474	114.986	N.pl3	1	UNK0	0.000	
9	  C7	-9.930	207.557	114.101	C.2	1	UNK0	0.000	
10	  C8	-11.270	207.559	114.450	C.2	1	UNK0	0.000	
11	  C9	-12.080	207.039	113.424	C.2	1	UNK0	0.000	
12	 C10	-11.835	206.762	112.081	C.2	1	UNK0	0.000	
13	 C11	-10.528	207.027	111.677	C.2	1	UNK0	0.000	
14	 C12	-9.670	207.380	112.739	C.2	1	UNK0	0.000	
15	 C13	-8.264	207.305	112.717	C.2	1	UNK0	0.000	
16	 C14	-7.804	207.366	114.095	C.2	1	UNK0	0.000	
17	 C15	-6.418	207.288	114.349	C.2	1	UNK0	0.000	
18	 C16	-5.508	207.139	113.300	C.2	1	UNK0	0.000	
19	 C17	-5.942	207.068	111.990	C.2	1	UNK0	0.000	
20	 C18	-7.303	207.145	111.692	C.2	1	UNK0	0.000	
21	 C19	-10.503	206.715	110.314	C.2	1	UNK0	0.000	
22	  N2	-11.650	206.294	109.884	N.2	1	UNK0	0.000	
23	 C20	-12.571	206.281	110.950	C.2	1	UNK0	0.000	
24	  O2	-13.734	205.917	110.840	O.2	1	UNK0	0.000	
25	 C21	-13.235	206.734	114.139	C.2	1	UNK0	0.000	
26	 C22	-13.189	207.515	115.354	C.2	1	UNK0	0.000	
27	 C23	-14.409	207.887	115.937	C.2	1	UNK0	0.000	
28	 C24	-15.567	207.206	115.521	C.2	1	UNK0	0.000	
29	 C25	-15.501	206.126	114.645	C.2	1	UNK0	0.000	
30	 C26	-14.337	205.893	113.928	C.2	1	UNK0	0.000	
31	  N3	-11.836	207.776	115.685	N.pl3	1	UNK0	0.000	
32	  N4	-10.595	204.702	118.853	N.3	1	UNK0	0.000	
33	 C27	-9.786	204.302	119.990	C.3	1	UNK0	0.000	
34	  O3	-10.628	205.365	115.844	O.3	1	UNK0	0.000	
35	 C28	-11.104	204.035	115.832	C.3	1	UNK0	0.000	
@<TRIPOS>BOND
1 1 2 1
2 1 6 1
3 2 3 1
4 2 31 1
5 3 4 1
6 4 5 1
7 4 32 1
8 5 6 1
9 5 34 1
10 6 7 1
11 6 8 1
12 8 9 1
13 8 16 1
14 9 10 1
15 9 14 2
16 10 11 2
17 10 31 1
18 11 12 1
19 11 25 1
20 12 13 2
21 12 23 1
22 13 14 1
23 13 21 1
24 14 15 1
25 15 16 1
26 15 20 2
27 16 17 2
28 17 18 1
29 18 19 2
30 19 20 1
31 21 22 2
32 22 23 1
33 23 24 2
34 25 26 1
35 25 30 2
36 26 27 2
37 26 31 1
38 27 28 1
39 28 29 2
40 29 30 1
41 32 33 1
42 34 35 1
@<TRIPOS>SUBSTRUCTURE
1	UNK0	1	GROUP	1 ****	UNK
