# created with PyMOL 2.5.0
@<TRIPOS>MOLECULE
data/CDK2/cocry_dataset/1aq1_STU_LIG.pdb
59 66 1                 
SMALL
USER_CHARGES
@<TRIPOS>ATOM
1	 H15	-7.437	205.964	119.533	 H	1	UNK0	0.000	
2	 H21	-13.935	205.673	121.057	 H	1	UNK0	0.000	
3	 H18	-14.002	207.605	119.215	 H	1	UNK0	0.000	
4	 H24	-13.413	208.157	115.190	 H	1	UNK0	0.000	
5	 H09	-16.126	204.360	113.863	 H	1	UNK0	0.000	
6	 H05	-15.014	206.721	116.810	 H	1	UNK0	0.000	
7	 H20	-15.474	206.527	121.326	 H	1	UNK0	0.000	
8	 H07	-15.450	203.138	115.705	 H	1	UNK0	0.000	
9	 H06	-16.186	204.758	115.747	 H	1	UNK0	0.000	
10	 H01	-11.616	203.455	118.205	 H	1	UNK0	0.000	
11	 H04	-15.088	205.018	118.741	 H	1	UNK0	0.000	
12	 H03	-13.259	204.119	119.668	 H	1	UNK0	0.000	
13	 H14	-9.235	204.298	119.022	 H	1	UNK0	0.000	
14	 H02	-12.267	205.612	119.367	 H	1	UNK0	0.000	
15	 H19	-13.940	207.430	121.339	 H	1	UNK0	0.000	
16	 H08	-15.820	203.907	117.267	 H	1	UNK0	0.000	
17	 H23	-12.260	208.813	116.377	 H	1	UNK0	0.000	
18	 H10	-16.725	204.783	111.499	 H	1	UNK0	0.000	
19	 H13	-10.684	206.938	110.847	 H	1	UNK0	0.000	
20	 H12	-12.729	206.078	110.645	 H	1	UNK0	0.000	
21	 H11	-15.049	205.631	109.908	 H	1	UNK0	0.000	
22	 H22	-13.998	208.765	116.757	 H	1	UNK0	0.000	
23	 H17	-8.827	208.563	116.427	 H	1	UNK0	0.000	
24	 H16	-7.551	208.239	118.540	 H	1	UNK0	0.000	
25	  O1	-13.288	203.691	116.897	O.3	1	UNK0	0.000	
26	  C1	-12.259	204.206	117.744	C.3	1	UNK0	0.000	
27	  C2	-12.976	204.893	118.955	C.3	1	UNK0	0.000	
28	  C3	-14.250	205.696	118.579	C.3	1	UNK0	0.000	
29	  C4	-14.154	206.114	117.093	C.3	1	UNK0	0.000	
30	  C5	-14.086	204.722	116.263	C.3	1	UNK0	0.000	
31	  C6	-15.488	204.085	116.244	C.3	1	UNK0	0.000	
32	  N1	-13.505	204.853	114.938	N.pl3	1	UNK0	0.000	
33	  C7	-12.211	205.184	114.686	C.2	1	UNK0	0.000	
34	  C8	-11.234	205.339	115.656	C.2	1	UNK0	0.000	
35	  C9	-10.231	206.238	115.251	C.2	1	UNK0	0.000	
36	 C10	-9.908	206.792	114.015	C.2	1	UNK0	0.000	
37	 C11	-10.756	206.403	112.979	C.2	1	UNK0	0.000	
38	 C12	-11.864	205.646	113.413	C.2	1	UNK0	0.000	
39	 C13	-13.064	205.466	112.700	C.2	1	UNK0	0.000	
40	 C14	-14.061	204.979	113.641	C.2	1	UNK0	0.000	
41	 C15	-15.370	204.737	113.174	C.2	1	UNK0	0.000	
42	 C16	-15.707	204.975	111.840	C.2	1	UNK0	0.000	
43	 C17	-14.767	205.450	110.945	C.2	1	UNK0	0.000	
44	 C18	-13.458	205.699	111.362	C.2	1	UNK0	0.000	
45	 C19	-10.248	207.036	111.841	C.2	1	UNK0	0.000	
46	  N2	-9.201	207.754	112.103	N.2	1	UNK0	0.000	
47	 C20	-8.909	207.667	113.477	C.2	1	UNK0	0.000	
48	  O2	-7.977	208.254	114.013	O.2	1	UNK0	0.000	
49	 C21	-9.663	206.560	116.481	C.2	1	UNK0	0.000	
50	 C22	-10.032	205.504	117.396	C.2	1	UNK0	0.000	
51	 C23	-9.159	205.227	118.458	C.2	1	UNK0	0.000	
52	 C24	-8.183	206.190	118.770	C.2	1	UNK0	0.000	
53	 C25	-8.147	207.424	118.127	C.2	1	UNK0	0.000	
54	 C26	-8.872	207.613	116.961	C.2	1	UNK0	0.000	
55	  N3	-11.253	204.927	116.968	N.pl3	1	UNK0	0.000	
56	  N4	-14.603	206.830	119.455	N.3	1	UNK0	0.000	
57	 C27	-14.481	206.600	120.883	C.3	1	UNK0	0.000	
58	  O3	-13.026	206.959	116.811	O.3	1	UNK0	0.000	
59	 C28	-13.183	208.247	116.251	C.3	1	UNK0	0.000	
@<TRIPOS>BOND
1 25 26 1
2 25 30 1
3 10 26 1
4 26 27 1
5 26 55 1
6 12 27 1
7 14 27 1
8 27 28 1
9 11 28 1
10 28 29 1
11 28 56 1
12 6 29 1
13 29 30 1
14 29 58 1
15 30 31 1
16 30 32 1
17 8 31 1
18 9 31 1
19 16 31 1
20 32 33 1
21 32 40 1
22 33 34 1
23 33 38 2
24 34 35 2
25 34 55 1
26 35 36 1
27 35 49 1
28 36 37 2
29 36 47 1
30 37 38 1
31 37 45 1
32 38 39 1
33 39 40 1
34 39 44 2
35 40 41 2
36 5 41 1
37 41 42 1
38 18 42 1
39 42 43 2
40 21 43 1
41 43 44 1
42 20 44 1
43 19 45 1
44 45 46 2
45 46 47 1
46 47 48 2
47 49 50 1
48 49 54 2
49 50 51 2
50 50 55 1
51 13 51 1
52 51 52 1
53 1 52 1
54 52 53 2
55 24 53 1
56 53 54 1
57 23 54 1
58 3 56 1
59 56 57 1
60 2 57 1
61 7 57 1
62 15 57 1
63 58 59 1
64 4 59 1
65 17 59 1
66 22 59 1
@<TRIPOS>SUBSTRUCTURE
1	UNK0	1	GROUP	1 ****	UNK
