# created with PyMOL 2.5.0
@<TRIPOS>MOLECULE
data/CDK2/cocry_dataset/1aq1_STU_LIG.pdb
59 66 1                 
SMALL
USER_CHARGES
@<TRIPOS>ATOM
1	 H15	-16.539	207.532	115.892	 H	1	UNK0	0.000	
2	 H21	-9.498	203.256	119.882	 H	1	UNK0	0.000	
3	 H18	-11.555	204.757	119.162	 H	1	UNK0	0.000	
4	 H24	-11.228	203.684	116.856	 H	1	UNK0	0.000	
5	 H09	-6.054	207.343	115.375	 H	1	UNK0	0.000	
6	 H05	-8.902	205.032	116.803	 H	1	UNK0	0.000	
7	 H20	-10.360	204.428	120.908	 H	1	UNK0	0.000	
8	 H07	-7.921	208.140	118.040	 H	1	UNK0	0.000	
9	 H06	-6.995	207.928	116.535	 H	1	UNK0	0.000	
10	 H01	-11.881	208.913	117.276	 H	1	UNK0	0.000	
11	 H04	-9.497	206.380	118.915	 H	1	UNK0	0.000	
12	 H03	-11.344	207.630	119.106	 H	1	UNK0	0.000	
13	 H14	-14.458	208.677	116.686	 H	1	UNK0	0.000	
14	 H02	-12.305	206.529	118.025	 H	1	UNK0	0.000	
15	 H19	-8.891	204.921	120.034	 H	1	UNK0	0.000	
16	 H08	-7.368	206.518	117.554	 H	1	UNK0	0.000	
17	 H23	-10.389	203.397	115.312	 H	1	UNK0	0.000	
18	 H10	-4.441	207.079	113.518	 H	1	UNK0	0.000	
19	 H13	-9.618	206.815	109.685	 H	1	UNK0	0.000	
20	 H12	-7.630	207.082	110.654	 H	1	UNK0	0.000	
21	 H11	-5.217	206.950	111.184	 H	1	UNK0	0.000	
22	 H22	-12.065	203.998	115.317	 H	1	UNK0	0.000	
23	 H17	-14.281	205.071	113.213	 H	1	UNK0	0.000	
24	 H16	-16.360	205.466	114.524	 H	1	UNK0	0.000	
25	  O1	-9.854	208.387	116.855	O.3	1	UNK0	0.000	
26	  C1	-11.243	208.078	116.985	C.3	1	UNK0	0.000	
27	  C2	-11.368	207.066	118.174	C.3	1	UNK0	0.000	
28	  C3	-10.248	205.992	118.227	C.3	1	UNK0	0.000	
29	  C4	-9.661	205.814	116.808	C.3	1	UNK0	0.000	
30	  C5	-9.049	207.264	116.415	C.3	1	UNK0	0.000	
31	  C6	-7.738	207.478	117.193	C.3	1	UNK0	0.000	
32	  N1	-8.901	207.474	114.986	N.pl3	1	UNK0	0.000	
33	  C7	-9.930	207.557	114.101	C.2	1	UNK0	0.000	
34	  C8	-11.270	207.559	114.450	C.2	1	UNK0	0.000	
35	  C9	-12.080	207.039	113.424	C.2	1	UNK0	0.000	
36	 C10	-11.835	206.762	112.081	C.2	1	UNK0	0.000	
37	 C11	-10.528	207.027	111.677	C.2	1	UNK0	0.000	
38	 C12	-9.670	207.380	112.739	C.2	1	UNK0	0.000	
39	 C13	-8.264	207.305	112.717	C.2	1	UNK0	0.000	
40	 C14	-7.804	207.366	114.095	C.2	1	UNK0	0.000	
41	 C15	-6.418	207.288	114.349	C.2	1	UNK0	0.000	
42	 C16	-5.508	207.139	113.300	C.2	1	UNK0	0.000	
43	 C17	-5.942	207.068	111.990	C.2	1	UNK0	0.000	
44	 C18	-7.303	207.145	111.692	C.2	1	UNK0	0.000	
45	 C19	-10.503	206.715	110.314	C.2	1	UNK0	0.000	
46	  N2	-11.650	206.294	109.884	N.2	1	UNK0	0.000	
47	 C20	-12.571	206.281	110.950	C.2	1	UNK0	0.000	
48	  O2	-13.734	205.917	110.840	O.2	1	UNK0	0.000	
49	 C21	-13.235	206.734	114.139	C.2	1	UNK0	0.000	
50	 C22	-13.189	207.515	115.354	C.2	1	UNK0	0.000	
51	 C23	-14.409	207.887	115.937	C.2	1	UNK0	0.000	
52	 C24	-15.567	207.206	115.521	C.2	1	UNK0	0.000	
53	 C25	-15.501	206.126	114.645	C.2	1	UNK0	0.000	
54	 C26	-14.337	205.893	113.928	C.2	1	UNK0	0.000	
55	  N3	-11.836	207.776	115.685	N.pl3	1	UNK0	0.000	
56	  N4	-10.595	204.702	118.853	N.3	1	UNK0	0.000	
57	 C27	-9.786	204.302	119.990	C.3	1	UNK0	0.000	
58	  O3	-10.628	205.365	115.844	O.3	1	UNK0	0.000	
59	 C28	-11.104	204.035	115.832	C.3	1	UNK0	0.000	
@<TRIPOS>BOND
1 25 26 1
2 25 30 1
3 10 26 1
4 26 27 1
5 26 55 1
6 12 27 1
7 14 27 1
8 27 28 1
9 11 28 1
10 28 29 1
11 28 56 1
12 6 29 1
13 29 30 1
14 29 58 1
15 30 31 1
16 30 32 1
17 8 31 1
18 9 31 1
19 16 31 1
20 32 33 1
21 32 40 1
22 33 34 1
23 33 38 2
24 34 35 2
25 34 55 1
26 35 36 1
27 35 49 1
28 36 37 2
29 36 47 1
30 37 38 1
31 37 45 1
32 38 39 1
33 39 40 1
34 39 44 2
35 40 41 2
36 5 41 1
37 41 42 1
38 18 42 1
39 42 43 2
40 21 43 1
41 43 44 1
42 20 44 1
43 19 45 1
44 45 46 2
45 46 47 1
46 47 48 2
47 49 50 1
48 49 54 2
49 50 51 2
50 50 55 1
51 13 51 1
52 51 52 1
53 1 52 1
54 52 53 2
55 24 53 1
56 53 54 1
57 23 54 1
58 3 56 1
59 56 57 1
60 2 57 1
61 7 57 1
62 15 57 1
63 58 59 1
64 4 59 1
65 17 59 1
66 22 59 1
@<TRIPOS>SUBSTRUCTURE
1	UNK0	1	GROUP	1 ****	UNK
