# created with PyMOL 2.5.0
@<TRIPOS>MOLECULE
data/CDK2/cocry_dataset/1b38_ATP_LIG.pdb
31 33 1                 
SMALL
USER_CHARGES
@<TRIPOS>ATOM
1	  C1	-8.026	207.528	115.151	C.3	1	UNK0	0.000	
2	  O1	-8.668	206.450	114.420	O.3	1	UNK0	0.000	
3	  C2	-9.219	206.981	113.191	C.3	1	UNK0	0.000	
4	  C3	-9.230	208.503	113.316	C.3	1	UNK0	0.000	
5	  C4	-8.020	208.735	114.208	C.3	1	UNK0	0.000	
6	  O2	-6.850	208.755	113.366	O.3	1	UNK0	0.000	
7	  O3	-9.088	209.158	112.055	O.3	1	UNK0	0.000	
8	  N1	-10.510	206.381	112.930	N.pl3	1	UNK0	0.000	
9	  C5	-11.165	205.505	113.758	C.2	1	UNK0	0.000	
10	  N2	-12.314	205.107	113.249	N.2	1	UNK0	0.000	
11	  C6	-12.402	205.757	112.032	C.2	1	UNK0	0.000	
12	  C7	-13.370	205.745	111.015	C.2	1	UNK0	0.000	
13	  N3	-14.543	205.001	111.085	N.pl3	1	UNK0	0.000	
14	  N4	-13.146	206.477	109.899	N.2	1	UNK0	0.000	
15	  C8	-12.008	207.202	109.827	C.2	1	UNK0	0.000	
16	  N5	-11.013	207.285	110.731	N.2	1	UNK0	0.000	
17	  C9	-11.281	206.541	111.814	C.2	1	UNK0	0.000	
18	 C10	-8.762	207.811	116.476	C.3	1	UNK0	0.000	
19	  O4	-9.943	207.022	116.557	O.3	1	UNK0	0.000	
20	  P1	-11.331	207.711	116.989	P.3	1	UNK0	0.000	
21	  O5	-11.749	207.563	118.411	O.co2	1	UNK0	0.000	
22	  O6	-11.045	209.241	116.605	O.co2	1	UNK0	0.000	
23	  O7	-12.421	207.333	115.905	O.3	1	UNK0	0.000	
24	  P2	-13.981	207.553	115.964	P.3	1	UNK0	0.000	
25	  O8	-14.498	208.610	115.039	O.co2	1	UNK0	0.000	
26	  O9	-14.177	208.018	117.486	O.co2	1	UNK0	0.000	
27	 O10	-14.733	206.163	115.898	O.3	1	UNK0	0.000	
28	  P3	-15.585	205.602	114.692	P.3	1	UNK0	0.000	
29	 O11	-16.992	205.222	115.003	O.co2	1	UNK0	0.000	
30	 O12	-15.493	206.648	113.493	O.co2	1	UNK0	0.000	
31	 O13	-14.765	204.366	114.099	O.co2	1	UNK0	0.000	
@<TRIPOS>BOND
1 1 2 1
2 1 5 1
3 1 18 1
4 2 3 1
5 3 4 1
6 3 8 1
7 4 5 1
8 4 7 1
9 5 6 1
10 8 9 1
11 8 17 1
12 9 10 2
13 10 11 1
14 11 12 1
15 11 17 2
16 12 13 1
17 12 14 2
18 14 15 1
19 15 16 2
20 16 17 1
21 18 19 1
22 19 20 1
23 20 21 2
24 20 22 1
25 20 23 1
26 23 24 1
27 24 25 2
28 24 26 1
29 24 27 1
30 27 28 1
31 28 29 2
32 28 30 1
33 28 31 1
@<TRIPOS>SUBSTRUCTURE
1	UNK0	1	GROUP	1 ****	UNK
