# created with PyMOL 2.5.0
@<TRIPOS>MOLECULE
data/CDK2/cocry_dataset/1b38_ATP_LIG.pdb
47 49 1                 
SMALL
USER_CHARGES
@<TRIPOS>ATOM
1	 H06	-9.421	208.167	115.666	 H	1	UNK0	0.000	
2	 H03	-11.520	207.200	115.434	 H	1	UNK0	0.000	
3	 H07	-13.175	204.116	114.017	 H	1	UNK0	0.000	
4	 H08	-13.486	206.910	108.445	 H	1	UNK0	0.000	
5	 H13	-15.530	205.191	118.377	 H	1	UNK0	0.000	
6	 H09	-14.309	205.839	109.557	 H	1	UNK0	0.000	
7	 H14	-15.420	209.159	115.408	 H	1	UNK0	0.000	
8	 H11	-12.697	205.817	117.469	 H	1	UNK0	0.000	
9	 H02	-9.692	205.183	114.152	 H	1	UNK0	0.000	
10	 H12	-12.274	204.450	118.535	 H	1	UNK0	0.000	
11	 H01	-10.422	203.954	117.406	 H	1	UNK0	0.000	
12	 H15	-15.380	207.788	112.526	 H	1	UNK0	0.000	
13	 H10	-9.625	208.190	110.477	 H	1	UNK0	0.000	
14	 H16	-16.070	204.405	112.054	 H	1	UNK0	0.000	
15	 H05	-8.482	205.705	115.922	 H	1	UNK0	0.000	
16	 H04	-10.502	206.634	117.649	 H	1	UNK0	0.000	
17	  C1	-10.980	204.682	116.817	C.3	1	UNK0	0.000	
18	  O1	-11.116	204.268	115.432	O.3	1	UNK0	0.000	
19	  C2	-10.683	205.351	114.575	C.3	1	UNK0	0.000	
20	  C3	-10.603	206.610	115.436	C.3	1	UNK0	0.000	
21	  C4	-10.236	206.019	116.789	C.3	1	UNK0	0.000	
22	  O2	-8.805	205.840	116.816	O.3	1	UNK0	0.000	
23	  O3	-9.612	207.528	114.975	O.3	1	UNK0	0.000	
24	  N1	-11.560	205.452	113.428	N.pl3	1	UNK0	0.000	
25	  C5	-12.750	204.788	113.272	C.2	1	UNK0	0.000	
26	  N2	-13.320	205.059	112.115	N.2	1	UNK0	0.000	
27	  C6	-12.454	205.939	111.494	C.2	1	UNK0	0.000	
28	  C7	-12.483	206.582	110.246	C.2	1	UNK0	0.000	
29	  N3	-13.521	206.430	109.333	N.pl3	1	UNK0	0.000	
30	  N4	-11.441	207.373	109.901	N.2	1	UNK0	0.000	
31	  C8	-10.431	207.524	110.785	C.2	1	UNK0	0.000	
32	  N5	-10.294	206.957	111.999	N.2	1	UNK0	0.000	
33	  C9	-11.348	206.181	112.292	C.2	1	UNK0	0.000	
34	 C10	-12.359	204.782	117.500	C.3	1	UNK0	0.000	
35	  O4	-13.302	203.964	116.818	O.3	1	UNK0	0.000	
36	  P1	-14.771	204.539	116.503	P.3	1	UNK0	0.000	
37	  O5	-15.533	203.887	115.401	O.co2	1	UNK0	0.000	
38	  O6	-15.486	204.346	117.924	O.3	1	UNK0	0.000	
39	  O7	-14.671	206.117	116.433	O.3	1	UNK0	0.000	
40	  P2	-15.047	207.073	115.237	P.3	1	UNK0	0.000	
41	  O8	-13.929	207.347	114.282	O.co2	1	UNK0	0.000	
42	  O9	-15.439	208.417	116.018	O.3	1	UNK0	0.000	
43	 O10	-16.410	206.615	114.576	O.3	1	UNK0	0.000	
44	  P3	-16.636	206.175	113.077	P.3	1	UNK0	0.000	
45	 O11	-18.016	206.345	112.543	O.co2	1	UNK0	0.000	
46	 O12	-15.545	206.909	112.176	O.3	1	UNK0	0.000	
47	 O13	-16.157	204.654	112.977	O.3	1	UNK0	0.000	
@<TRIPOS>BOND
1 11 17 1
2 17 18 1
3 17 21 1
4 17 34 1
5 18 19 1
6 9 19 1
7 19 20 1
8 19 24 1
9 2 20 1
10 20 21 1
11 20 23 1
12 16 21 1
13 21 22 1
14 15 22 1
15 1 23 1
16 24 25 1
17 24 33 1
18 3 25 1
19 25 26 2
20 26 27 1
21 27 28 1
22 27 33 2
23 28 29 1
24 28 30 2
25 4 29 1
26 6 29 1
27 30 31 1
28 13 31 1
29 31 32 2
30 32 33 1
31 8 34 1
32 10 34 1
33 34 35 1
34 35 36 1
35 36 37 2
36 36 38 1
37 36 39 1
38 5 38 1
39 39 40 1
40 40 41 2
41 40 42 1
42 7 42 1
43 40 43 1
44 43 44 1
45 44 45 2
46 44 46 1
47 44 47 1
48 12 46 1
49 14 47 1
@<TRIPOS>SUBSTRUCTURE
1	UNK0	1	GROUP	1 ****	UNK
