# created with PyMOL 2.5.0
@<TRIPOS>MOLECULE
data/CDK2/cocry_dataset/1b38_ATP_LIG.pdb
31 33 1                 
SMALL
USER_CHARGES
@<TRIPOS>ATOM
1	  C1	-12.874	204.735	117.011	C.3	1	UNK0	0.000	
2	  O1	-12.199	205.054	115.765	O.3	1	UNK0	0.000	
3	  C2	-10.777	205.150	116.015	C.3	1	UNK0	0.000	
4	  C3	-10.584	205.241	117.527	C.3	1	UNK0	0.000	
5	  C4	-11.768	204.427	118.025	C.3	1	UNK0	0.000	
6	  O2	-11.387	203.037	118.001	O.3	1	UNK0	0.000	
7	  O3	-9.342	204.681	117.956	O.3	1	UNK0	0.000	
8	  N1	-10.219	206.254	115.262	N.pl3	1	UNK0	0.000	
9	  C5	-9.389	207.225	115.764	C.2	1	UNK0	0.000	
10	  N2	-9.059	208.114	114.850	N.2	1	UNK0	0.000	
11	  C6	-9.708	207.698	113.703	C.2	1	UNK0	0.000	
12	  C7	-9.769	208.220	112.401	C.2	1	UNK0	0.000	
13	  N3	-9.092	209.369	112.007	N.pl3	1	UNK0	0.000	
14	  N4	-10.542	207.590	111.487	N.2	1	UNK0	0.000	
15	  C8	-11.200	206.473	111.865	C.2	1	UNK0	0.000	
16	  N5	-11.221	205.887	113.078	N.2	1	UNK0	0.000	
17	  C9	-10.445	206.551	113.948	C.2	1	UNK0	0.000	
18	 C10	-13.785	205.896	117.458	C.3	1	UNK0	0.000	
19	  O4	-14.887	206.022	116.568	O.3	1	UNK0	0.000	
20	  P1	-14.918	207.231	115.508	P.3	1	UNK0	0.000	
21	  O5	-14.761	208.612	116.047	O.co2	1	UNK0	0.000	
22	  O6	-13.706	206.823	114.543	O.co2	1	UNK0	0.000	
23	  O7	-16.153	207.003	114.544	O.3	1	UNK0	0.000	
24	  P2	-16.566	205.693	113.772	P.3	1	UNK0	0.000	
25	  O8	-18.027	205.582	113.466	O.co2	1	UNK0	0.000	
26	  O9	-16.142	204.559	114.823	O.co2	1	UNK0	0.000	
27	 O10	-15.594	205.448	112.547	O.3	1	UNK0	0.000	
28	  P3	-14.543	204.281	112.389	P.3	1	UNK0	0.000	
29	 O11	-13.907	204.145	111.048	O.co2	1	UNK0	0.000	
30	 O12	-13.466	204.423	113.556	O.co2	1	UNK0	0.000	
31	 O13	-15.295	202.937	112.815	O.co2	1	UNK0	0.000	
@<TRIPOS>BOND
1 1 2 1
2 1 5 1
3 1 18 1
4 2 3 1
5 3 4 1
6 3 8 1
7 4 5 1
8 4 7 1
9 5 6 1
10 8 9 1
11 8 17 1
12 9 10 2
13 10 11 1
14 11 12 1
15 11 17 2
16 12 13 1
17 12 14 2
18 14 15 1
19 15 16 2
20 16 17 1
21 18 19 1
22 19 20 1
23 20 21 2
24 20 22 1
25 20 23 1
26 23 24 1
27 24 25 2
28 24 26 1
29 24 27 1
30 27 28 1
31 28 29 2
32 28 30 1
33 28 31 1
@<TRIPOS>SUBSTRUCTURE
1	UNK0	1	GROUP	1 ****	UNK
