# created with PyMOL 2.5.0
@<TRIPOS>MOLECULE
data/CDK2/cocry_dataset/1b38_ATP_LIG.pdb
31 33 1                 
SMALL
USER_CHARGES
@<TRIPOS>ATOM
1	  C1	-10.980	204.682	116.817	C.3	1	UNK0	0.000	
2	  O1	-11.116	204.268	115.432	O.3	1	UNK0	0.000	
3	  C2	-10.683	205.351	114.575	C.3	1	UNK0	0.000	
4	  C3	-10.603	206.610	115.436	C.3	1	UNK0	0.000	
5	  C4	-10.236	206.019	116.789	C.3	1	UNK0	0.000	
6	  O2	-8.805	205.840	116.816	O.3	1	UNK0	0.000	
7	  O3	-9.612	207.528	114.975	O.3	1	UNK0	0.000	
8	  N1	-11.560	205.452	113.428	N.pl3	1	UNK0	0.000	
9	  C5	-12.750	204.788	113.272	C.2	1	UNK0	0.000	
10	  N2	-13.320	205.059	112.115	N.2	1	UNK0	0.000	
11	  C6	-12.454	205.939	111.494	C.2	1	UNK0	0.000	
12	  C7	-12.483	206.582	110.246	C.2	1	UNK0	0.000	
13	  N3	-13.521	206.430	109.333	N.pl3	1	UNK0	0.000	
14	  N4	-11.441	207.373	109.901	N.2	1	UNK0	0.000	
15	  C8	-10.431	207.524	110.785	C.2	1	UNK0	0.000	
16	  N5	-10.294	206.957	111.999	N.2	1	UNK0	0.000	
17	  C9	-11.348	206.181	112.292	C.2	1	UNK0	0.000	
18	 C10	-12.359	204.782	117.500	C.3	1	UNK0	0.000	
19	  O4	-13.302	203.964	116.818	O.3	1	UNK0	0.000	
20	  P1	-14.771	204.539	116.503	P.3	1	UNK0	0.000	
21	  O5	-15.533	203.887	115.401	O.co2	1	UNK0	0.000	
22	  O6	-15.486	204.346	117.924	O.co2	1	UNK0	0.000	
23	  O7	-14.671	206.117	116.433	O.3	1	UNK0	0.000	
24	  P2	-15.047	207.073	115.237	P.3	1	UNK0	0.000	
25	  O8	-13.929	207.347	114.282	O.co2	1	UNK0	0.000	
26	  O9	-15.439	208.417	116.018	O.co2	1	UNK0	0.000	
27	 O10	-16.410	206.615	114.576	O.3	1	UNK0	0.000	
28	  P3	-16.636	206.175	113.077	P.3	1	UNK0	0.000	
29	 O11	-18.016	206.345	112.543	O.co2	1	UNK0	0.000	
30	 O12	-15.545	206.909	112.176	O.co2	1	UNK0	0.000	
31	 O13	-16.157	204.654	112.977	O.co2	1	UNK0	0.000	
@<TRIPOS>BOND
1 1 2 1
2 1 5 1
3 1 18 1
4 2 3 1
5 3 4 1
6 3 8 1
7 4 5 1
8 4 7 1
9 5 6 1
10 8 9 1
11 8 17 1
12 9 10 2
13 10 11 1
14 11 12 1
15 11 17 2
16 12 13 1
17 12 14 2
18 14 15 1
19 15 16 2
20 16 17 1
21 18 19 1
22 19 20 1
23 20 21 2
24 20 22 1
25 20 23 1
26 23 24 1
27 24 25 2
28 24 26 1
29 24 27 1
30 27 28 1
31 28 29 2
32 28 30 1
33 28 31 1
@<TRIPOS>SUBSTRUCTURE
1	UNK0	1	GROUP	1 ****	UNK
