# created with PyMOL 2.5.0
@<TRIPOS>MOLECULE
data/CDK2/cocry_dataset/1b38_ATP_LIG.pdb
47 49 1                 
SMALL
USER_CHARGES
@<TRIPOS>ATOM
1	 H06	-9.432	210.052	112.117	 H	1	UNK0	0.000	
2	 H03	-10.165	208.902	113.708	 H	1	UNK0	0.000	
3	 H07	-10.781	205.177	114.724	 H	1	UNK0	0.000	
4	 H08	-15.201	205.023	110.320	 H	1	UNK0	0.000	
5	 H13	-11.052	209.778	117.400	 H	1	UNK0	0.000	
6	 H09	-14.736	204.438	111.901	 H	1	UNK0	0.000	
7	 H14	-13.884	208.927	117.584	 H	1	UNK0	0.000	
8	 H11	-9.035	208.865	116.514	 H	1	UNK0	0.000	
9	 H02	-8.616	206.730	112.318	 H	1	UNK0	0.000	
10	 H12	-8.107	207.567	117.312	 H	1	UNK0	0.000	
11	 H01	-7.007	207.273	115.440	 H	1	UNK0	0.000	
12	 H15	-15.981	207.442	113.722	 H	1	UNK0	0.000	
13	 H10	-11.879	207.796	108.922	 H	1	UNK0	0.000	
14	 H16	-14.637	204.490	113.156	 H	1	UNK0	0.000	
15	 H05	-6.646	209.660	113.122	 H	1	UNK0	0.000	
16	 H04	-8.033	209.669	114.769	 H	1	UNK0	0.000	
17	  C1	-8.026	207.528	115.151	C.3	1	UNK0	0.000	
18	  O1	-8.668	206.450	114.420	O.3	1	UNK0	0.000	
19	  C2	-9.219	206.981	113.191	C.3	1	UNK0	0.000	
20	  C3	-9.230	208.503	113.316	C.3	1	UNK0	0.000	
21	  C4	-8.020	208.735	114.208	C.3	1	UNK0	0.000	
22	  O2	-6.850	208.755	113.366	O.3	1	UNK0	0.000	
23	  O3	-9.088	209.158	112.055	O.3	1	UNK0	0.000	
24	  N1	-10.510	206.381	112.930	N.pl3	1	UNK0	0.000	
25	  C5	-11.165	205.505	113.758	C.2	1	UNK0	0.000	
26	  N2	-12.314	205.107	113.249	N.2	1	UNK0	0.000	
27	  C6	-12.402	205.757	112.032	C.2	1	UNK0	0.000	
28	  C7	-13.370	205.745	111.015	C.2	1	UNK0	0.000	
29	  N3	-14.543	205.001	111.085	N.pl3	1	UNK0	0.000	
30	  N4	-13.146	206.477	109.899	N.2	1	UNK0	0.000	
31	  C8	-12.008	207.202	109.827	C.2	1	UNK0	0.000	
32	  N5	-11.013	207.285	110.731	N.2	1	UNK0	0.000	
33	  C9	-11.281	206.541	111.814	C.2	1	UNK0	0.000	
34	 C10	-8.762	207.811	116.476	C.3	1	UNK0	0.000	
35	  O4	-9.943	207.022	116.557	O.3	1	UNK0	0.000	
36	  P1	-11.331	207.711	116.989	P.3	1	UNK0	0.000	
37	  O5	-11.749	207.563	118.411	O.co2	1	UNK0	0.000	
38	  O6	-11.045	209.241	116.605	O.3	1	UNK0	0.000	
39	  O7	-12.421	207.333	115.905	O.3	1	UNK0	0.000	
40	  P2	-13.981	207.553	115.964	P.3	1	UNK0	0.000	
41	  O8	-14.498	208.610	115.039	O.co2	1	UNK0	0.000	
42	  O9	-14.177	208.018	117.486	O.3	1	UNK0	0.000	
43	 O10	-14.733	206.163	115.898	O.3	1	UNK0	0.000	
44	  P3	-15.585	205.602	114.692	P.3	1	UNK0	0.000	
45	 O11	-16.992	205.222	115.003	O.co2	1	UNK0	0.000	
46	 O12	-15.493	206.648	113.493	O.3	1	UNK0	0.000	
47	 O13	-14.765	204.366	114.099	O.3	1	UNK0	0.000	
@<TRIPOS>BOND
1 11 17 1
2 17 18 1
3 17 21 1
4 17 34 1
5 18 19 1
6 9 19 1
7 19 20 1
8 19 24 1
9 2 20 1
10 20 21 1
11 20 23 1
12 16 21 1
13 21 22 1
14 15 22 1
15 1 23 1
16 24 25 1
17 24 33 1
18 3 25 1
19 25 26 2
20 26 27 1
21 27 28 1
22 27 33 2
23 28 29 1
24 28 30 2
25 4 29 1
26 6 29 1
27 30 31 1
28 13 31 1
29 31 32 2
30 32 33 1
31 8 34 1
32 10 34 1
33 34 35 1
34 35 36 1
35 36 37 2
36 36 38 1
37 36 39 1
38 5 38 1
39 39 40 1
40 40 41 2
41 40 42 1
42 7 42 1
43 40 43 1
44 43 44 1
45 44 45 2
46 44 46 1
47 44 47 1
48 12 46 1
49 14 47 1
@<TRIPOS>SUBSTRUCTURE
1	UNK0	1	GROUP	1 ****	UNK
