# created with PyMOL 2.5.0
@<TRIPOS>MOLECULE
data/CDK2/cocry_dataset/1b39_ATP_LIG.pdb
47 49 1                 
SMALL
USER_CHARGES
@<TRIPOS>ATOM
1	 H06	-8.499	204.338	117.213	 H	1	UNK0	0.000	
2	 H03	-9.898	206.449	117.729	 H	1	UNK0	0.000	
3	 H07	-8.533	206.608	116.021	 H	1	UNK0	0.000	
4	 H08	-10.672	208.264	110.424	 H	1	UNK0	0.000	
5	 H13	-13.561	207.895	114.343	 H	1	UNK0	0.000	
6	 H09	-9.481	208.584	111.666	 H	1	UNK0	0.000	
7	 H14	-13.929	204.412	114.310	 H	1	UNK0	0.000	
8	 H11	-12.652	206.816	119.140	 H	1	UNK0	0.000	
9	 H02	-10.345	203.853	116.269	 H	1	UNK0	0.000	
10	 H12	-14.191	206.193	118.453	 H	1	UNK0	0.000	
11	 H01	-13.138	204.250	118.303	 H	1	UNK0	0.000	
12	 H15	-18.716	205.142	113.826	 H	1	UNK0	0.000	
13	 H10	-13.230	204.827	111.950	 H	1	UNK0	0.000	
14	 H16	-16.009	207.241	113.470	 H	1	UNK0	0.000	
15	 H05	-10.679	203.037	118.306	 H	1	UNK0	0.000	
16	 H04	-11.157	205.485	119.675	 H	1	UNK0	0.000	
17	  C1	-12.448	205.031	117.985	C.3	1	UNK0	0.000	
18	  O1	-12.139	204.911	116.578	O.3	1	UNK0	0.000	
19	  C2	-10.708	204.868	116.431	C.3	1	UNK0	0.000	
20	  C3	-10.090	205.376	117.730	C.3	1	UNK0	0.000	
21	  C4	-11.120	204.915	118.746	C.3	1	UNK0	0.000	
22	  O2	-10.799	203.558	119.103	O.3	1	UNK0	0.000	
23	  O3	-8.806	204.807	117.992	O.3	1	UNK0	0.000	
24	  N1	-10.309	205.606	115.253	N.pl3	1	UNK0	0.000	
25	  C5	-9.251	206.481	115.211	C.2	1	UNK0	0.000	
26	  N2	-9.207	207.148	114.078	N.2	1	UNK0	0.000	
27	  C6	-10.276	206.673	113.352	C.2	1	UNK0	0.000	
28	  C7	-10.786	207.019	112.087	C.2	1	UNK0	0.000	
29	  N3	-10.267	208.048	111.324	N.pl3	1	UNK0	0.000	
30	  N4	-11.844	206.326	111.607	N.2	1	UNK0	0.000	
31	  C8	-12.388	205.366	112.383	C.2	1	UNK0	0.000	
32	  N5	-12.025	204.984	113.628	N.2	1	UNK0	0.000	
33	  C9	-10.951	205.679	114.049	C.2	1	UNK0	0.000	
34	 C10	-13.131	206.369	118.269	C.3	1	UNK0	0.000	
35	  O4	-12.996	207.272	117.177	O.3	1	UNK0	0.000	
36	  P1	-14.438	207.671	116.309	P.3	1	UNK0	0.000	
37	  O5	-15.729	208.029	115.532	O.co2	1	UNK0	0.000	
38	  O6	-13.634	207.167	114.965	O.3	1	UNK0	0.000	
39	  O7	-15.119	206.139	116.736	O.3	1	UNK0	0.000	
40	  P2	-15.623	205.312	115.302	P.3	1	UNK0	0.000	
41	  O8	-16.427	204.267	116.104	O.co2	1	UNK0	0.000	
42	  O9	-14.202	204.495	115.226	O.3	1	UNK0	0.000	
43	 O10	-16.127	204.486	113.869	O.3	1	UNK0	0.000	
44	  P3	-16.877	205.423	112.813	P.3	1	UNK0	0.000	
45	 O11	-16.361	205.495	111.425	O.co2	1	UNK0	0.000	
46	 O12	-18.416	205.023	112.922	O.3	1	UNK0	0.000	
47	 O13	-16.886	206.854	113.520	O.3	1	UNK0	0.000	
@<TRIPOS>BOND
1 11 17 1
2 17 18 1
3 17 21 1
4 17 34 1
5 18 19 1
6 9 19 1
7 19 20 1
8 19 24 1
9 2 20 1
10 20 21 1
11 20 23 1
12 16 21 1
13 21 22 1
14 15 22 1
15 1 23 1
16 24 25 1
17 24 33 1
18 3 25 1
19 25 26 2
20 26 27 1
21 27 28 1
22 27 33 2
23 28 29 1
24 28 30 2
25 4 29 1
26 6 29 1
27 30 31 1
28 13 31 1
29 31 32 2
30 32 33 1
31 8 34 1
32 10 34 1
33 34 35 1
34 35 36 1
35 36 37 2
36 36 38 1
37 36 39 1
38 5 38 1
39 39 40 1
40 40 41 2
41 40 42 1
42 7 42 1
43 40 43 1
44 43 44 1
45 44 45 2
46 44 46 1
47 44 47 1
48 12 46 1
49 14 47 1
@<TRIPOS>SUBSTRUCTURE
1	UNK0	1	GROUP	1 ****	UNK
