# created with PyMOL 2.5.0
@<TRIPOS>MOLECULE
data/CDK2/cocry_dataset/1b39_ATP_LIG.pdb
31 33 1                 
SMALL
USER_CHARGES
@<TRIPOS>ATOM
1	  C1	-8.312	207.632	114.206	C.3	1	UNK0	0.000	
2	  O1	-9.054	206.419	113.950	O.3	1	UNK0	0.000	
3	  C2	-9.911	206.644	112.815	C.3	1	UNK0	0.000	
4	  C3	-10.011	208.152	112.598	C.3	1	UNK0	0.000	
5	  C4	-8.640	208.608	113.068	C.3	1	UNK0	0.000	
6	  O2	-7.738	208.488	111.953	O.3	1	UNK0	0.000	
7	  O3	-10.238	208.499	111.231	O.3	1	UNK0	0.000	
8	  N1	-11.183	205.986	113.017	N.pl3	1	UNK0	0.000	
9	  C5	-11.483	205.201	114.103	C.2	1	UNK0	0.000	
10	  N2	-12.637	204.584	113.962	N.2	1	UNK0	0.000	
11	  C6	-13.108	205.000	112.737	C.2	1	UNK0	0.000	
12	  C7	-14.261	204.664	112.006	C.2	1	UNK0	0.000	
13	  N3	-15.168	203.710	112.430	N.pl3	1	UNK0	0.000	
14	  N4	-14.482	205.289	110.827	N.2	1	UNK0	0.000	
15	  C8	-13.562	206.172	110.386	C.2	1	UNK0	0.000	
16	  N5	-12.396	206.533	110.967	N.2	1	UNK0	0.000	
17	  C9	-12.237	205.909	112.150	C.2	1	UNK0	0.000	
18	 C10	-8.699	208.218	115.564	C.3	1	UNK0	0.000	
19	  O4	-10.058	208.642	115.587	O.3	1	UNK0	0.000	
20	  P1	-11.139	207.749	116.601	P.3	1	UNK0	0.000	
21	  O5	-12.106	206.951	117.509	O.co2	1	UNK0	0.000	
22	  O6	-11.024	209.016	117.645	O.co2	1	UNK0	0.000	
23	  O7	-12.484	208.346	115.691	O.3	1	UNK0	0.000	
24	  P2	-13.887	207.399	116.049	P.3	1	UNK0	0.000	
25	  O8	-14.722	208.095	114.954	O.co2	1	UNK0	0.000	
26	  O9	-14.284	208.387	117.299	O.co2	1	UNK0	0.000	
27	 O10	-15.290	206.452	116.407	O.3	1	UNK0	0.000	
28	  P3	-15.026	204.876	116.390	P.3	1	UNK0	0.000	
29	 O11	-15.552	204.073	115.260	O.co2	1	UNK0	0.000	
30	 O12	-13.460	204.713	116.639	O.co2	1	UNK0	0.000	
31	 O13	-15.607	204.381	117.792	O.co2	1	UNK0	0.000	
@<TRIPOS>BOND
1 1 2 1
2 1 5 1
3 1 18 1
4 2 3 1
5 3 4 1
6 3 8 1
7 4 5 1
8 4 7 1
9 5 6 1
10 8 9 1
11 8 17 1
12 9 10 2
13 10 11 1
14 11 12 1
15 11 17 2
16 12 13 1
17 12 14 2
18 14 15 1
19 15 16 2
20 16 17 1
21 18 19 1
22 19 20 1
23 20 21 2
24 20 22 1
25 20 23 1
26 23 24 1
27 24 25 2
28 24 26 1
29 24 27 1
30 27 28 1
31 28 29 2
32 28 30 1
33 28 31 1
@<TRIPOS>SUBSTRUCTURE
1	UNK0	1	GROUP	1 ****	UNK
