# created with PyMOL 2.5.0
@<TRIPOS>MOLECULE
data/CDK2/cocry_dataset/1b39_ATP_LIG.pdb
31 33 1                 
SMALL
USER_CHARGES
@<TRIPOS>ATOM
1	  C1	-12.448	205.031	117.985	C.3	1	UNK0	0.000	
2	  O1	-12.139	204.911	116.578	O.3	1	UNK0	0.000	
3	  C2	-10.708	204.868	116.431	C.3	1	UNK0	0.000	
4	  C3	-10.090	205.376	117.730	C.3	1	UNK0	0.000	
5	  C4	-11.120	204.915	118.746	C.3	1	UNK0	0.000	
6	  O2	-10.799	203.558	119.103	O.3	1	UNK0	0.000	
7	  O3	-8.806	204.807	117.992	O.3	1	UNK0	0.000	
8	  N1	-10.309	205.606	115.253	N.pl3	1	UNK0	0.000	
9	  C5	-9.251	206.481	115.211	C.2	1	UNK0	0.000	
10	  N2	-9.207	207.148	114.078	N.2	1	UNK0	0.000	
11	  C6	-10.276	206.673	113.352	C.2	1	UNK0	0.000	
12	  C7	-10.786	207.019	112.087	C.2	1	UNK0	0.000	
13	  N3	-10.267	208.048	111.324	N.pl3	1	UNK0	0.000	
14	  N4	-11.844	206.326	111.607	N.2	1	UNK0	0.000	
15	  C8	-12.388	205.366	112.383	C.2	1	UNK0	0.000	
16	  N5	-12.025	204.984	113.628	N.2	1	UNK0	0.000	
17	  C9	-10.951	205.679	114.049	C.2	1	UNK0	0.000	
18	 C10	-13.131	206.369	118.269	C.3	1	UNK0	0.000	
19	  O4	-12.996	207.272	117.177	O.3	1	UNK0	0.000	
20	  P1	-14.438	207.671	116.309	P.3	1	UNK0	0.000	
21	  O5	-15.729	208.029	115.532	O.co2	1	UNK0	0.000	
22	  O6	-13.634	207.167	114.965	O.co2	1	UNK0	0.000	
23	  O7	-15.119	206.139	116.736	O.3	1	UNK0	0.000	
24	  P2	-15.623	205.312	115.302	P.3	1	UNK0	0.000	
25	  O8	-16.427	204.267	116.104	O.co2	1	UNK0	0.000	
26	  O9	-14.202	204.495	115.226	O.co2	1	UNK0	0.000	
27	 O10	-16.127	204.486	113.869	O.3	1	UNK0	0.000	
28	  P3	-16.877	205.423	112.813	P.3	1	UNK0	0.000	
29	 O11	-16.361	205.495	111.425	O.co2	1	UNK0	0.000	
30	 O12	-18.416	205.023	112.922	O.co2	1	UNK0	0.000	
31	 O13	-16.886	206.854	113.520	O.co2	1	UNK0	0.000	
@<TRIPOS>BOND
1 1 2 1
2 1 5 1
3 1 18 1
4 2 3 1
5 3 4 1
6 3 8 1
7 4 5 1
8 4 7 1
9 5 6 1
10 8 9 1
11 8 17 1
12 9 10 2
13 10 11 1
14 11 12 1
15 11 17 2
16 12 13 1
17 12 14 2
18 14 15 1
19 15 16 2
20 16 17 1
21 18 19 1
22 19 20 1
23 20 21 2
24 20 22 1
25 20 23 1
26 23 24 1
27 24 25 2
28 24 26 1
29 24 27 1
30 27 28 1
31 28 29 2
32 28 30 1
33 28 31 1
@<TRIPOS>SUBSTRUCTURE
1	UNK0	1	GROUP	1 ****	UNK
