# created with PyMOL 2.5.0
@<TRIPOS>MOLECULE
data/CDK2/cocry_dataset/1b39_ATP_LIG.pdb
47 49 1                 
SMALL
USER_CHARGES
@<TRIPOS>ATOM
1	 H06	-10.556	207.730	110.753	 H	1	UNK0	0.000	
2	 H03	-10.850	208.611	113.120	 H	1	UNK0	0.000	
3	 H07	-10.841	205.100	114.978	 H	1	UNK0	0.000	
4	 H08	-15.979	203.498	111.867	 H	1	UNK0	0.000	
5	 H13	-10.613	208.722	118.462	 H	1	UNK0	0.000	
6	 H09	-15.020	203.226	113.304	 H	1	UNK0	0.000	
7	 H14	-14.212	209.302	117.019	 H	1	UNK0	0.000	
8	 H11	-8.069	209.088	115.750	 H	1	UNK0	0.000	
9	 H02	-9.504	206.207	111.904	 H	1	UNK0	0.000	
10	 H12	-8.553	207.459	116.332	 H	1	UNK0	0.000	
11	 H01	-7.240	207.436	114.240	 H	1	UNK0	0.000	
12	 H15	-13.112	204.033	116.058	 H	1	UNK0	0.000	
13	 H10	-13.788	206.659	109.438	 H	1	UNK0	0.000	
14	 H16	-15.610	205.112	118.414	 H	1	UNK0	0.000	
15	 H05	-7.608	209.350	111.552	 H	1	UNK0	0.000	
16	 H04	-8.578	209.639	113.414	 H	1	UNK0	0.000	
17	  C1	-8.312	207.632	114.206	C.3	1	UNK0	0.000	
18	  O1	-9.054	206.419	113.950	O.3	1	UNK0	0.000	
19	  C2	-9.911	206.644	112.815	C.3	1	UNK0	0.000	
20	  C3	-10.011	208.152	112.598	C.3	1	UNK0	0.000	
21	  C4	-8.640	208.608	113.068	C.3	1	UNK0	0.000	
22	  O2	-7.738	208.488	111.953	O.3	1	UNK0	0.000	
23	  O3	-10.238	208.499	111.231	O.3	1	UNK0	0.000	
24	  N1	-11.183	205.986	113.017	N.pl3	1	UNK0	0.000	
25	  C5	-11.483	205.201	114.103	C.2	1	UNK0	0.000	
26	  N2	-12.637	204.584	113.962	N.2	1	UNK0	0.000	
27	  C6	-13.108	205.000	112.737	C.2	1	UNK0	0.000	
28	  C7	-14.261	204.664	112.006	C.2	1	UNK0	0.000	
29	  N3	-15.168	203.710	112.430	N.pl3	1	UNK0	0.000	
30	  N4	-14.482	205.289	110.827	N.2	1	UNK0	0.000	
31	  C8	-13.562	206.172	110.386	C.2	1	UNK0	0.000	
32	  N5	-12.396	206.533	110.967	N.2	1	UNK0	0.000	
33	  C9	-12.237	205.909	112.150	C.2	1	UNK0	0.000	
34	 C10	-8.699	208.218	115.564	C.3	1	UNK0	0.000	
35	  O4	-10.058	208.642	115.587	O.3	1	UNK0	0.000	
36	  P1	-11.139	207.749	116.601	P.3	1	UNK0	0.000	
37	  O5	-12.106	206.951	117.509	O.co2	1	UNK0	0.000	
38	  O6	-11.024	209.016	117.645	O.3	1	UNK0	0.000	
39	  O7	-12.484	208.346	115.691	O.3	1	UNK0	0.000	
40	  P2	-13.887	207.399	116.049	P.3	1	UNK0	0.000	
41	  O8	-14.722	208.095	114.954	O.co2	1	UNK0	0.000	
42	  O9	-14.284	208.387	117.299	O.3	1	UNK0	0.000	
43	 O10	-15.290	206.452	116.407	O.3	1	UNK0	0.000	
44	  P3	-15.026	204.876	116.390	P.3	1	UNK0	0.000	
45	 O11	-15.552	204.073	115.260	O.co2	1	UNK0	0.000	
46	 O12	-13.460	204.713	116.639	O.3	1	UNK0	0.000	
47	 O13	-15.607	204.381	117.792	O.3	1	UNK0	0.000	
@<TRIPOS>BOND
1 11 17 1
2 17 18 1
3 17 21 1
4 17 34 1
5 18 19 1
6 9 19 1
7 19 20 1
8 19 24 1
9 2 20 1
10 20 21 1
11 20 23 1
12 16 21 1
13 21 22 1
14 15 22 1
15 1 23 1
16 24 25 1
17 24 33 1
18 3 25 1
19 25 26 2
20 26 27 1
21 27 28 1
22 27 33 2
23 28 29 1
24 28 30 2
25 4 29 1
26 6 29 1
27 30 31 1
28 13 31 1
29 31 32 2
30 32 33 1
31 8 34 1
32 10 34 1
33 34 35 1
34 35 36 1
35 36 37 2
36 36 38 1
37 36 39 1
38 5 38 1
39 39 40 1
40 40 41 2
41 40 42 1
42 7 42 1
43 40 43 1
44 43 44 1
45 44 45 2
46 44 46 1
47 44 47 1
48 12 46 1
49 14 47 1
@<TRIPOS>SUBSTRUCTURE
1	UNK0	1	GROUP	1 ****	UNK
