# created with PyMOL 2.5.0
@<TRIPOS>MOLECULE
data/CDK2/cocry_dataset/1b39_ATP_LIG.pdb
31 33 1                 
SMALL
USER_CHARGES
@<TRIPOS>ATOM
1	  C1	-15.475	206.431	115.133	C.3	1	UNK0	0.000	
2	  O1	-14.529	206.979	114.187	O.3	1	UNK0	0.000	
3	  C2	-14.224	205.965	113.213	C.3	1	UNK0	0.000	
4	  C3	-14.674	204.622	113.781	C.3	1	UNK0	0.000	
5	  C4	-15.871	205.042	114.616	C.3	1	UNK0	0.000	
6	  O2	-17.016	205.077	113.744	O.3	1	UNK0	0.000	
7	  O3	-15.045	203.688	112.766	O.3	1	UNK0	0.000	
8	  N1	-12.823	206.023	112.859	N.pl3	1	UNK0	0.000	
9	  C5	-11.793	205.867	113.755	C.2	1	UNK0	0.000	
10	  N2	-10.624	206.135	113.214	N.2	1	UNK0	0.000	
11	  C6	-10.911	206.465	111.909	C.2	1	UNK0	0.000	
12	  C7	-10.098	206.887	110.842	C.2	1	UNK0	0.000	
13	  N3	-8.741	207.118	110.977	N.pl3	1	UNK0	0.000	
14	  N4	-10.673	207.094	109.635	N.2	1	UNK0	0.000	
15	  C8	-12.008	206.929	109.524	C.2	1	UNK0	0.000	
16	  N5	-12.896	206.585	110.482	N.2	1	UNK0	0.000	
17	  C9	-12.273	206.359	111.654	C.2	1	UNK0	0.000	
18	 C10	-14.849	206.344	116.524	C.3	1	UNK0	0.000	
19	  O4	-15.294	205.192	117.231	O.3	1	UNK0	0.000	
20	  P1	-14.272	204.609	118.500	P.3	1	UNK0	0.000	
21	  O5	-13.358	204.088	119.635	O.co2	1	UNK0	0.000	
22	  O6	-15.661	204.336	119.339	O.co2	1	UNK0	0.000	
23	  O7	-14.187	203.066	117.723	O.3	1	UNK0	0.000	
24	  P2	-15.565	202.119	118.168	P.3	1	UNK0	0.000	
25	  O8	-15.040	200.876	117.419	O.co2	1	UNK0	0.000	
26	  O9	-16.452	202.762	116.946	O.co2	1	UNK0	0.000	
27	 O10	-16.942	201.172	118.614	O.3	1	UNK0	0.000	
28	  P3	-18.338	201.920	118.393	P.3	1	UNK0	0.000	
29	 O11	-18.958	201.900	117.047	O.co2	1	UNK0	0.000	
30	 O12	-19.284	201.387	119.560	O.co2	1	UNK0	0.000	
31	 O13	-18.051	203.408	118.893	O.co2	1	UNK0	0.000	
@<TRIPOS>BOND
1 1 2 1
2 1 5 1
3 1 18 1
4 2 3 1
5 3 4 1
6 3 8 1
7 4 5 1
8 4 7 1
9 5 6 1
10 8 9 1
11 8 17 1
12 9 10 2
13 10 11 1
14 11 12 1
15 11 17 2
16 12 13 1
17 12 14 2
18 14 15 1
19 15 16 2
20 16 17 1
21 18 19 1
22 19 20 1
23 20 21 2
24 20 22 1
25 20 23 1
26 23 24 1
27 24 25 2
28 24 26 1
29 24 27 1
30 27 28 1
31 28 29 2
32 28 30 1
33 28 31 1
@<TRIPOS>SUBSTRUCTURE
1	UNK0	1	GROUP	1 ****	UNK
