# created with PyMOL 2.5.0
@<TRIPOS>MOLECULE
data/CDK2/cocry_dataset/1b39_ATP_LIG.pdb
47 49 1                 
SMALL
USER_CHARGES
@<TRIPOS>ATOM
1	 H06	-15.251	202.841	113.169	 H	1	UNK0	0.000	
2	 H03	-13.892	204.100	114.333	 H	1	UNK0	0.000	
3	 H07	-11.929	205.558	114.791	 H	1	UNK0	0.000	
4	 H08	-8.200	207.428	110.183	 H	1	UNK0	0.000	
5	 H13	-15.882	205.115	119.855	 H	1	UNK0	0.000	
6	 H09	-8.291	206.977	111.870	 H	1	UNK0	0.000	
7	 H14	-16.701	202.069	116.331	 H	1	UNK0	0.000	
8	 H11	-15.151	207.226	117.088	 H	1	UNK0	0.000	
9	 H02	-14.762	206.123	112.277	 H	1	UNK0	0.000	
10	 H12	-13.764	206.299	116.422	 H	1	UNK0	0.000	
11	 H01	-16.355	207.069	115.221	 H	1	UNK0	0.000	
12	 H15	-19.407	202.079	120.214	 H	1	UNK0	0.000	
13	 H10	-12.424	207.096	108.531	 H	1	UNK0	0.000	
14	 H16	-17.909	203.405	119.843	 H	1	UNK0	0.000	
15	 H05	-17.328	204.182	113.588	 H	1	UNK0	0.000	
16	 H04	-16.126	204.380	115.444	 H	1	UNK0	0.000	
17	  C1	-15.475	206.431	115.133	C.3	1	UNK0	0.000	
18	  O1	-14.529	206.979	114.187	O.3	1	UNK0	0.000	
19	  C2	-14.224	205.965	113.213	C.3	1	UNK0	0.000	
20	  C3	-14.674	204.622	113.781	C.3	1	UNK0	0.000	
21	  C4	-15.871	205.042	114.616	C.3	1	UNK0	0.000	
22	  O2	-17.016	205.077	113.744	O.3	1	UNK0	0.000	
23	  O3	-15.045	203.688	112.766	O.3	1	UNK0	0.000	
24	  N1	-12.823	206.023	112.859	N.pl3	1	UNK0	0.000	
25	  C5	-11.793	205.867	113.755	C.2	1	UNK0	0.000	
26	  N2	-10.624	206.135	113.214	N.2	1	UNK0	0.000	
27	  C6	-10.911	206.465	111.909	C.2	1	UNK0	0.000	
28	  C7	-10.098	206.887	110.842	C.2	1	UNK0	0.000	
29	  N3	-8.741	207.118	110.977	N.pl3	1	UNK0	0.000	
30	  N4	-10.673	207.094	109.635	N.2	1	UNK0	0.000	
31	  C8	-12.008	206.929	109.524	C.2	1	UNK0	0.000	
32	  N5	-12.896	206.585	110.482	N.2	1	UNK0	0.000	
33	  C9	-12.273	206.359	111.654	C.2	1	UNK0	0.000	
34	 C10	-14.849	206.344	116.524	C.3	1	UNK0	0.000	
35	  O4	-15.294	205.192	117.231	O.3	1	UNK0	0.000	
36	  P1	-14.272	204.609	118.500	P.3	1	UNK0	0.000	
37	  O5	-13.358	204.088	119.635	O.co2	1	UNK0	0.000	
38	  O6	-15.661	204.336	119.339	O.3	1	UNK0	0.000	
39	  O7	-14.187	203.066	117.723	O.3	1	UNK0	0.000	
40	  P2	-15.565	202.119	118.168	P.3	1	UNK0	0.000	
41	  O8	-15.040	200.876	117.419	O.co2	1	UNK0	0.000	
42	  O9	-16.452	202.762	116.946	O.3	1	UNK0	0.000	
43	 O10	-16.942	201.172	118.614	O.3	1	UNK0	0.000	
44	  P3	-18.338	201.920	118.393	P.3	1	UNK0	0.000	
45	 O11	-18.958	201.900	117.047	O.co2	1	UNK0	0.000	
46	 O12	-19.284	201.387	119.560	O.3	1	UNK0	0.000	
47	 O13	-18.051	203.408	118.893	O.3	1	UNK0	0.000	
@<TRIPOS>BOND
1 11 17 1
2 17 18 1
3 17 21 1
4 17 34 1
5 18 19 1
6 9 19 1
7 19 20 1
8 19 24 1
9 2 20 1
10 20 21 1
11 20 23 1
12 16 21 1
13 21 22 1
14 15 22 1
15 1 23 1
16 24 25 1
17 24 33 1
18 3 25 1
19 25 26 2
20 26 27 1
21 27 28 1
22 27 33 2
23 28 29 1
24 28 30 2
25 4 29 1
26 6 29 1
27 30 31 1
28 13 31 1
29 31 32 2
30 32 33 1
31 8 34 1
32 10 34 1
33 34 35 1
34 35 36 1
35 36 37 2
36 36 38 1
37 36 39 1
38 5 38 1
39 39 40 1
40 40 41 2
41 40 42 1
42 7 42 1
43 40 43 1
44 43 44 1
45 44 45 2
46 44 46 1
47 44 47 1
48 12 46 1
49 14 47 1
@<TRIPOS>SUBSTRUCTURE
1	UNK0	1	GROUP	1 ****	UNK
