# created with PyMOL 2.5.0
@<TRIPOS>MOLECULE
data/CDK2/cocry_dataset/1ckp_PVB_LIG.pdb
18 20 1                 
SMALL
USER_CHARGES
@<TRIPOS>ATOM
1	  N1	-12.537	206.709	109.879	N.2	1	UNK0	0.000	
2	  C1	-11.368	207.370	109.960	C.2	1	UNK0	0.000	
3	  N2	-10.496	207.379	110.979	N.2	1	UNK0	0.000	
4	  C2	-10.920	206.595	111.982	C.2	1	UNK0	0.000	
5	  N3	-10.307	206.378	113.181	N.pl3	1	UNK0	0.000	
6	  C3	-9.069	206.963	113.623	C.3	1	UNK0	0.000	
7	  C4	-11.091	205.517	113.901	C.2	1	UNK0	0.000	
8	  N4	-12.175	205.166	113.237	N.2	1	UNK0	0.000	
9	  C5	-12.086	205.844	112.035	C.2	1	UNK0	0.000	
10	  C6	-12.939	205.927	110.922	C.2	1	UNK0	0.000	
11	  N5	-14.156	205.229	110.849	N.pl3	1	UNK0	0.000	
12	  C7	-15.307	205.452	111.625	C.2	1	UNK0	0.000	
13	  C8	-15.469	204.781	112.843	C.2	1	UNK0	0.000	
14	  C9	-16.655	204.907	113.577	C.2	1	UNK0	0.000	
15	 C10	-17.687	205.721	113.108	C.2	1	UNK0	0.000	
16	 C11	-17.526	206.408	111.910	C.2	1	UNK0	0.000	
17	 Cl1	-18.785	207.424	111.324	Cl	1	UNK0	0.000	
18	 C12	-16.351	206.271	111.174	C.2	1	UNK0	0.000	
@<TRIPOS>BOND
1 1 2 1
2 1 10 2
3 2 3 2
4 3 4 1
5 4 5 1
6 4 9 2
7 5 6 1
8 5 7 1
9 7 8 2
10 8 9 1
11 9 10 1
12 10 11 1
13 11 12 1
14 12 13 1
15 12 18 2
16 13 14 2
17 14 15 1
18 15 16 2
19 16 17 1
20 16 18 1
@<TRIPOS>SUBSTRUCTURE
1	UNK0	1	GROUP	1 ****	UNK
