# created with PyMOL 2.5.0
@<TRIPOS>MOLECULE
data/CDK2/cocry_dataset/1ckp_PVB_LIG.pdb
18 20 1                 
SMALL
USER_CHARGES
@<TRIPOS>ATOM
1	  N1	-13.871	204.027	111.814	N.2	1	UNK0	0.000	
2	  C1	-14.832	203.391	112.507	C.2	1	UNK0	0.000	
3	  N2	-16.069	203.827	112.790	N.2	1	UNK0	0.000	
4	  C2	-16.282	205.044	112.267	C.2	1	UNK0	0.000	
5	  N3	-17.410	205.805	112.369	N.pl3	1	UNK0	0.000	
6	  C3	-18.611	205.456	113.079	C.3	1	UNK0	0.000	
7	  C4	-17.188	206.973	111.692	C.2	1	UNK0	0.000	
8	  N4	-15.983	207.011	111.158	N.2	1	UNK0	0.000	
9	  C5	-15.399	205.811	111.520	C.2	1	UNK0	0.000	
10	  C6	-14.122	205.268	111.302	C.2	1	UNK0	0.000	
11	  N5	-13.128	205.942	110.575	N.pl3	1	UNK0	0.000	
12	  C7	-11.902	206.424	111.065	C.2	1	UNK0	0.000	
13	  C8	-10.886	206.789	110.173	C.2	1	UNK0	0.000	
14	  C9	-9.623	207.168	110.642	C.2	1	UNK0	0.000	
15	 C10	-9.365	207.203	112.013	C.2	1	UNK0	0.000	
16	 C11	-10.375	206.864	112.907	C.2	1	UNK0	0.000	
17	 Cl1	-10.076	206.914	114.601	Cl	1	UNK0	0.000	
18	 C12	-11.627	206.474	112.439	C.2	1	UNK0	0.000	
@<TRIPOS>BOND
1 1 2 1
2 1 10 2
3 2 3 2
4 3 4 1
5 4 5 1
6 4 9 2
7 5 6 1
8 5 7 1
9 7 8 2
10 8 9 1
11 9 10 1
12 10 11 1
13 11 12 1
14 12 13 1
15 12 18 2
16 13 14 2
17 14 15 1
18 15 16 2
19 16 17 1
20 16 18 1
@<TRIPOS>SUBSTRUCTURE
1	UNK0	1	GROUP	1 ****	UNK
