# created with PyMOL 2.5.0
@<TRIPOS>MOLECULE
data/CDK2/cocry_dataset/1ckp_PVB_LIG.pdb
28 30 1                 
SMALL
USER_CHARGES
@<TRIPOS>ATOM
1	 H06	-13.313	206.097	109.594	 H	1	UNK0	0.000	
2	 H07	-11.082	206.779	109.100	 H	1	UNK0	0.000	
3	 H08	-8.838	207.435	109.934	 H	1	UNK0	0.000	
4	 H01	-14.575	202.400	112.883	 H	1	UNK0	0.000	
5	 H10	-12.406	206.202	113.152	 H	1	UNK0	0.000	
6	 H05	-17.919	207.777	111.604	 H	1	UNK0	0.000	
7	 H03	-18.455	204.524	113.623	 H	1	UNK0	0.000	
8	 H02	-19.428	205.328	112.369	 H	1	UNK0	0.000	
9	 H09	-8.381	207.494	112.379	 H	1	UNK0	0.000	
10	 H04	-18.862	206.250	113.782	 H	1	UNK0	0.000	
11	  N1	-13.871	204.027	111.814	N.2	1	UNK0	0.000	
12	  C1	-14.832	203.391	112.507	C.2	1	UNK0	0.000	
13	  N2	-16.069	203.827	112.790	N.2	1	UNK0	0.000	
14	  C2	-16.282	205.044	112.267	C.2	1	UNK0	0.000	
15	  N3	-17.410	205.805	112.369	N.pl3	1	UNK0	0.000	
16	  C3	-18.611	205.456	113.079	C.3	1	UNK0	0.000	
17	  C4	-17.188	206.973	111.692	C.2	1	UNK0	0.000	
18	  N4	-15.983	207.011	111.158	N.2	1	UNK0	0.000	
19	  C5	-15.399	205.811	111.520	C.2	1	UNK0	0.000	
20	  C6	-14.122	205.268	111.302	C.2	1	UNK0	0.000	
21	  N5	-13.128	205.942	110.575	N.pl3	1	UNK0	0.000	
22	  C7	-11.902	206.424	111.065	C.2	1	UNK0	0.000	
23	  C8	-10.886	206.789	110.173	C.2	1	UNK0	0.000	
24	  C9	-9.623	207.168	110.642	C.2	1	UNK0	0.000	
25	 C10	-9.365	207.203	112.013	C.2	1	UNK0	0.000	
26	 C11	-10.375	206.864	112.907	C.2	1	UNK0	0.000	
27	 Cl1	-10.076	206.914	114.601	Cl	1	UNK0	0.000	
28	 C12	-11.627	206.474	112.439	C.2	1	UNK0	0.000	
@<TRIPOS>BOND
1 11 12 1
2 11 20 2
3 4 12 1
4 12 13 2
5 13 14 1
6 14 15 1
7 14 19 2
8 15 16 1
9 15 17 1
10 7 16 1
11 8 16 1
12 10 16 1
13 6 17 1
14 17 18 2
15 18 19 1
16 19 20 1
17 20 21 1
18 1 21 1
19 21 22 1
20 22 23 1
21 22 28 2
22 2 23 1
23 23 24 2
24 3 24 1
25 24 25 1
26 9 25 1
27 25 26 2
28 26 27 1
29 26 28 1
30 5 28 1
@<TRIPOS>SUBSTRUCTURE
1	UNK0	1	GROUP	1 ****	UNK
