# created with PyMOL 2.5.0
@<TRIPOS>MOLECULE
data/CDK2/cocry_dataset/1ckp_PVB_LIG.pdb
18 20 1                 
SMALL
USER_CHARGES
@<TRIPOS>ATOM
1	  N1	-15.696	203.184	116.222	N.2	1	UNK0	0.000	
2	  C1	-15.754	203.501	117.528	C.2	1	UNK0	0.000	
3	  N2	-15.212	204.564	118.142	N.2	1	UNK0	0.000	
4	  C2	-14.571	205.351	117.265	C.2	1	UNK0	0.000	
5	  N3	-13.887	206.502	117.529	N.pl3	1	UNK0	0.000	
6	  C3	-13.703	207.106	118.822	C.3	1	UNK0	0.000	
7	  C4	-13.387	206.972	116.344	C.2	1	UNK0	0.000	
8	  N4	-13.708	206.192	115.331	N.2	1	UNK0	0.000	
9	  C5	-14.443	205.165	115.896	C.2	1	UNK0	0.000	
10	  C6	-15.029	204.005	115.360	C.2	1	UNK0	0.000	
11	  N5	-14.963	203.687	113.994	N.pl3	1	UNK0	0.000	
12	  C7	-15.227	204.545	112.912	C.2	1	UNK0	0.000	
13	  C8	-14.222	204.822	111.978	C.2	1	UNK0	0.000	
14	  C9	-14.431	205.757	110.957	C.2	1	UNK0	0.000	
15	 C10	-15.656	206.415	110.849	C.2	1	UNK0	0.000	
16	 C11	-16.668	206.131	111.760	C.2	1	UNK0	0.000	
17	 Cl1	-18.189	206.926	111.633	Cl	1	UNK0	0.000	
18	 C12	-16.454	205.210	112.784	C.2	1	UNK0	0.000	
@<TRIPOS>BOND
1 1 2 1
2 1 10 2
3 2 3 2
4 3 4 1
5 4 5 1
6 4 9 2
7 5 6 1
8 5 7 1
9 7 8 2
10 8 9 1
11 9 10 1
12 10 11 1
13 11 12 1
14 12 13 1
15 12 18 2
16 13 14 2
17 14 15 1
18 15 16 2
19 16 17 1
20 16 18 1
@<TRIPOS>SUBSTRUCTURE
1	UNK0	1	GROUP	1 ****	UNK
