# created with PyMOL 2.5.0
@<TRIPOS>MOLECULE
data/CDK2/cocry_dataset/1ckp_PVB_LIG.pdb
28 30 1                 
SMALL
USER_CHARGES
@<TRIPOS>ATOM
1	 H06	-14.210	204.487	110.165	 H	1	UNK0	0.000	
2	 H07	-14.663	204.155	113.225	 H	1	UNK0	0.000	
3	 H08	-16.773	204.367	114.516	 H	1	UNK0	0.000	
4	 H01	-11.097	207.972	109.092	 H	1	UNK0	0.000	
5	 H10	-16.242	206.810	110.232	 H	1	UNK0	0.000	
6	 H05	-10.849	205.164	114.904	 H	1	UNK0	0.000	
7	 H03	-9.228	208.015	113.857	 H	1	UNK0	0.000	
8	 H02	-8.324	206.875	112.833	 H	1	UNK0	0.000	
9	 H09	-18.613	205.816	113.676	 H	1	UNK0	0.000	
10	 H04	-8.717	206.441	114.513	 H	1	UNK0	0.000	
11	  N1	-12.537	206.709	109.879	N.2	1	UNK0	0.000	
12	  C1	-11.368	207.370	109.960	C.2	1	UNK0	0.000	
13	  N2	-10.496	207.379	110.979	N.2	1	UNK0	0.000	
14	  C2	-10.920	206.595	111.982	C.2	1	UNK0	0.000	
15	  N3	-10.307	206.378	113.181	N.pl3	1	UNK0	0.000	
16	  C3	-9.069	206.963	113.623	C.3	1	UNK0	0.000	
17	  C4	-11.091	205.517	113.901	C.2	1	UNK0	0.000	
18	  N4	-12.175	205.166	113.237	N.2	1	UNK0	0.000	
19	  C5	-12.086	205.844	112.035	C.2	1	UNK0	0.000	
20	  C6	-12.939	205.927	110.922	C.2	1	UNK0	0.000	
21	  N5	-14.156	205.229	110.849	N.pl3	1	UNK0	0.000	
22	  C7	-15.307	205.452	111.625	C.2	1	UNK0	0.000	
23	  C8	-15.469	204.781	112.843	C.2	1	UNK0	0.000	
24	  C9	-16.655	204.907	113.577	C.2	1	UNK0	0.000	
25	 C10	-17.687	205.721	113.108	C.2	1	UNK0	0.000	
26	 C11	-17.526	206.408	111.910	C.2	1	UNK0	0.000	
27	 Cl1	-18.785	207.424	111.324	Cl	1	UNK0	0.000	
28	 C12	-16.351	206.271	111.174	C.2	1	UNK0	0.000	
@<TRIPOS>BOND
1 11 12 1
2 11 20 2
3 4 12 1
4 12 13 2
5 13 14 1
6 14 15 1
7 14 19 2
8 15 16 1
9 15 17 1
10 7 16 1
11 8 16 1
12 10 16 1
13 6 17 1
14 17 18 2
15 18 19 1
16 19 20 1
17 20 21 1
18 1 21 1
19 21 22 1
20 22 23 1
21 22 28 2
22 2 23 1
23 23 24 2
24 3 24 1
25 24 25 1
26 9 25 1
27 25 26 2
28 26 27 1
29 26 28 1
30 5 28 1
@<TRIPOS>SUBSTRUCTURE
1	UNK0	1	GROUP	1 ****	UNK
