# created with PyMOL 2.5.0
@<TRIPOS>MOLECULE
data/CDK2/cocry_dataset/1di8_DTQ_LIG.pdb
22 24 1                 
SMALL
USER_CHARGES
@<TRIPOS>ATOM
1	  N1	-12.831	204.615	114.983	N.2	1	UNK0	0.000	
2	  C1	-11.807	205.037	115.723	C.2	1	UNK0	0.000	
3	  N2	-10.731	205.678	115.265	N.2	1	UNK0	0.000	
4	  C2	-10.705	205.958	113.960	C.2	1	UNK0	0.000	
5	  C3	-11.725	205.605	113.072	C.2	1	UNK0	0.000	
6	  C4	-12.779	204.875	113.661	C.2	1	UNK0	0.000	
7	  C5	-11.642	206.049	111.722	C.2	1	UNK0	0.000	
8	  C6	-10.562	206.826	111.261	C.2	1	UNK0	0.000	
9	  C7	-9.525	207.127	112.146	C.2	1	UNK0	0.000	
10	  C8	-9.628	206.677	113.472	C.2	1	UNK0	0.000	
11	  N3	-13.825	204.362	112.839	N.pl3	1	UNK0	0.000	
12	  C9	-15.021	205.065	112.550	C.2	1	UNK0	0.000	
13	 C10	-16.220	204.726	113.194	C.2	1	UNK0	0.000	
14	 C11	-17.400	205.396	112.883	C.2	1	UNK0	0.000	
15	 C12	-17.411	206.420	111.946	C.2	1	UNK0	0.000	
16	 C13	-16.224	206.782	111.312	C.2	1	UNK0	0.000	
17	 C14	-15.033	206.112	111.618	C.2	1	UNK0	0.000	
18	  O1	-18.580	205.061	113.481	O.3	1	UNK0	0.000	
19	  O2	-8.400	207.883	111.993	O.3	1	UNK0	0.000	
20	 C15	-7.174	207.505	112.577	C.3	1	UNK0	0.000	
21	  O3	-10.764	207.457	110.062	O.3	1	UNK0	0.000	
22	 C16	-12.058	207.303	109.487	C.3	1	UNK0	0.000	
@<TRIPOS>BOND
1 1 2 1
2 1 6 2
3 2 3 2
4 3 4 1
5 4 5 1
6 4 10 2
7 5 6 1
8 5 7 2
9 6 11 1
10 7 8 1
11 8 9 2
12 8 21 1
13 9 10 1
14 9 19 1
15 11 12 1
16 12 13 1
17 12 17 2
18 13 14 2
19 14 15 1
20 14 18 1
21 15 16 2
22 16 17 1
23 19 20 1
24 21 22 1
@<TRIPOS>SUBSTRUCTURE
1	UNK0	1	GROUP	1 ****	UNK
