# created with PyMOL 2.5.0
@<TRIPOS>MOLECULE
data/CDK2/cocry_dataset/1di8_DTQ_LIG.pdb
22 24 1                 
SMALL
USER_CHARGES
@<TRIPOS>ATOM
1	  N1	-13.419	206.286	109.961	N.2	1	UNK0	0.000	
2	  C1	-12.449	207.041	109.448	C.2	1	UNK0	0.000	
3	  N2	-11.333	207.403	110.080	N.2	1	UNK0	0.000	
4	  C2	-11.156	206.930	111.315	C.2	1	UNK0	0.000	
5	  C3	-12.075	206.101	111.964	C.2	1	UNK0	0.000	
6	  C4	-13.245	205.839	111.222	C.2	1	UNK0	0.000	
7	  C5	-11.734	205.567	113.239	C.2	1	UNK0	0.000	
8	  C6	-10.503	205.855	113.860	C.2	1	UNK0	0.000	
9	  C7	-9.617	206.726	113.223	C.2	1	UNK0	0.000	
10	  C8	-9.976	207.241	111.967	C.2	1	UNK0	0.000	
11	  N3	-14.307	205.098	111.819	N.pl3	1	UNK0	0.000	
12	  C9	-15.630	205.586	111.961	C.2	1	UNK0	0.000	
13	 C10	-16.451	205.127	113.000	C.2	1	UNK0	0.000	
14	 C11	-17.761	205.583	113.116	C.2	1	UNK0	0.000	
15	 C12	-18.274	206.511	112.220	C.2	1	UNK0	0.000	
16	 C13	-17.463	206.992	111.194	C.2	1	UNK0	0.000	
17	 C14	-16.145	206.538	111.069	C.2	1	UNK0	0.000	
18	  O1	-18.583	205.125	114.105	O.3	1	UNK0	0.000	
19	  O2	-8.362	207.141	113.559	O.3	1	UNK0	0.000	
20	 C15	-7.417	207.497	112.576	C.3	1	UNK0	0.000	
21	  O3	-10.165	205.031	114.901	O.3	1	UNK0	0.000	
22	 C16	-11.223	204.679	115.786	C.3	1	UNK0	0.000	
@<TRIPOS>BOND
1 1 2 1
2 1 6 2
3 2 3 2
4 3 4 1
5 4 5 1
6 4 10 2
7 5 6 1
8 5 7 2
9 6 11 1
10 7 8 1
11 8 9 2
12 8 21 1
13 9 10 1
14 9 19 1
15 11 12 1
16 12 13 1
17 12 17 2
18 13 14 2
19 14 15 1
20 14 18 1
21 15 16 2
22 16 17 1
23 19 20 1
24 21 22 1
@<TRIPOS>SUBSTRUCTURE
1	UNK0	1	GROUP	1 ****	UNK
