# created with PyMOL 2.5.0
@<TRIPOS>MOLECULE
data/CDK2/cocry_dataset/1di8_DTQ_LIG.pdb
37 39 1                 
SMALL
USER_CHARGES
@<TRIPOS>ATOM
1	 H12	-18.169	206.023	111.683	 H	1	UNK0	0.000	
2	 H14	-14.627	205.795	116.464	 H	1	UNK0	0.000	
3	 H02	-12.549	204.982	113.962	 H	1	UNK0	0.000	
4	 H11	-17.515	206.504	113.268	 H	1	UNK0	0.000	
5	 H01	-12.495	207.529	108.670	 H	1	UNK0	0.000	
6	 H15	-15.321	206.521	114.994	 H	1	UNK0	0.000	
7	 H04	-10.278	205.013	112.476	 H	1	UNK0	0.000	
8	 H03	-16.085	205.556	110.589	 H	1	UNK0	0.000	
9	 H10	-18.840	205.320	113.174	 H	1	UNK0	0.000	
10	 H05	-11.110	206.832	114.864	 H	1	UNK0	0.000	
11	 H08	-8.509	207.361	111.472	 H	1	UNK0	0.000	
12	 H07	-7.341	209.202	112.662	 H	1	UNK0	0.000	
13	 H06	-8.061	209.860	114.951	 H	1	UNK0	0.000	
14	 H09	-9.930	209.728	116.357	 H	1	UNK0	0.000	
15	 H13	-16.317	205.460	116.018	 H	1	UNK0	0.000	
16	  N1	-11.571	206.849	110.395	N.2	1	UNK0	0.000	
17	  C1	-12.635	206.986	109.605	C.2	1	UNK0	0.000	
18	  N2	-13.856	206.516	109.861	N.2	1	UNK0	0.000	
19	  C2	-14.032	205.894	111.029	C.2	1	UNK0	0.000	
20	  C3	-13.013	205.708	111.967	C.2	1	UNK0	0.000	
21	  C4	-11.753	206.191	111.558	C.2	1	UNK0	0.000	
22	  C5	-13.339	205.127	113.225	C.2	1	UNK0	0.000	
23	  C6	-14.653	204.734	113.544	C.2	1	UNK0	0.000	
24	  C7	-15.651	204.879	112.577	C.2	1	UNK0	0.000	
25	  C8	-15.305	205.453	111.343	C.2	1	UNK0	0.000	
26	  N3	-10.611	205.962	112.380	N.pl3	1	UNK0	0.000	
27	  C9	-9.914	206.986	113.070	C.2	1	UNK0	0.000	
28	 C10	-10.292	207.355	114.369	C.2	1	UNK0	0.000	
29	 C11	-9.628	208.384	115.030	C.2	1	UNK0	0.000	
30	 C12	-8.572	209.053	114.426	C.2	1	UNK0	0.000	
31	 C13	-8.172	208.685	113.143	C.2	1	UNK0	0.000	
32	 C14	-8.835	207.651	112.471	C.2	1	UNK0	0.000	
33	  O1	-10.001	208.773	116.283	O.3	1	UNK0	0.000	
34	  O2	-16.991	204.631	112.620	O.3	1	UNK0	0.000	
35	 C15	-17.931	205.679	112.690	C.3	1	UNK0	0.000	
36	  O3	-14.891	204.508	114.874	O.3	1	UNK0	0.000	
37	 C16	-15.313	205.637	115.632	C.3	1	UNK0	0.000	
@<TRIPOS>BOND
1 16 17 1
2 16 21 2
3 5 17 1
4 17 18 2
5 18 19 1
6 19 20 1
7 19 25 2
8 20 21 1
9 20 22 2
10 21 26 1
11 3 22 1
12 22 23 1
13 23 24 2
14 23 36 1
15 24 25 1
16 24 34 1
17 8 25 1
18 7 26 1
19 26 27 1
20 27 28 1
21 27 32 2
22 10 28 1
23 28 29 2
24 29 30 1
25 29 33 1
26 13 30 1
27 30 31 2
28 12 31 1
29 31 32 1
30 11 32 1
31 14 33 1
32 34 35 1
33 1 35 1
34 4 35 1
35 9 35 1
36 36 37 1
37 2 37 1
38 6 37 1
39 15 37 1
@<TRIPOS>SUBSTRUCTURE
1	UNK0	1	GROUP	1 ****	UNK
