# created with PyMOL 2.5.0
@<TRIPOS>MOLECULE
data/CDK2/cocry_dataset/1di8_DTQ_LIG.pdb
37 39 1                 
SMALL
USER_CHARGES
@<TRIPOS>ATOM
1	 H12	-6.811	206.593	112.103	 H	1	UNK0	0.000	
2	 H14	-11.994	207.429	108.407	 H	1	UNK0	0.000	
3	 H02	-12.437	205.779	111.026	 H	1	UNK0	0.000	
4	 H11	-7.318	207.328	113.643	 H	1	UNK0	0.000	
5	 H01	-11.851	204.841	116.794	 H	1	UNK0	0.000	
6	 H15	-12.441	206.308	109.716	 H	1	UNK0	0.000	
7	 H04	-13.706	203.442	112.438	 H	1	UNK0	0.000	
8	 H03	-8.812	206.908	114.157	 H	1	UNK0	0.000	
9	 H10	-6.444	208.302	112.437	 H	1	UNK0	0.000	
10	 H05	-16.228	203.934	113.943	 H	1	UNK0	0.000	
11	 H08	-14.106	206.408	111.127	 H	1	UNK0	0.000	
12	 H07	-16.222	207.587	110.578	 H	1	UNK0	0.000	
13	 H06	-18.341	206.936	111.708	 H	1	UNK0	0.000	
14	 H09	-18.814	205.731	114.127	 H	1	UNK0	0.000	
15	 H13	-12.730	208.054	109.901	 H	1	UNK0	0.000	
16	  N1	-12.831	204.615	114.983	N.2	1	UNK0	0.000	
17	  C1	-11.807	205.037	115.723	C.2	1	UNK0	0.000	
18	  N2	-10.731	205.678	115.265	N.2	1	UNK0	0.000	
19	  C2	-10.705	205.958	113.960	C.2	1	UNK0	0.000	
20	  C3	-11.725	205.605	113.072	C.2	1	UNK0	0.000	
21	  C4	-12.779	204.875	113.661	C.2	1	UNK0	0.000	
22	  C5	-11.642	206.049	111.722	C.2	1	UNK0	0.000	
23	  C6	-10.562	206.826	111.261	C.2	1	UNK0	0.000	
24	  C7	-9.525	207.127	112.146	C.2	1	UNK0	0.000	
25	  C8	-9.628	206.677	113.472	C.2	1	UNK0	0.000	
26	  N3	-13.825	204.362	112.839	N.pl3	1	UNK0	0.000	
27	  C9	-15.021	205.065	112.550	C.2	1	UNK0	0.000	
28	 C10	-16.220	204.726	113.194	C.2	1	UNK0	0.000	
29	 C11	-17.400	205.396	112.883	C.2	1	UNK0	0.000	
30	 C12	-17.411	206.420	111.946	C.2	1	UNK0	0.000	
31	 C13	-16.224	206.782	111.312	C.2	1	UNK0	0.000	
32	 C14	-15.033	206.112	111.618	C.2	1	UNK0	0.000	
33	  O1	-18.580	205.061	113.481	O.3	1	UNK0	0.000	
34	  O2	-8.400	207.883	111.993	O.3	1	UNK0	0.000	
35	 C15	-7.174	207.505	112.577	C.3	1	UNK0	0.000	
36	  O3	-10.764	207.457	110.062	O.3	1	UNK0	0.000	
37	 C16	-12.058	207.303	109.487	C.3	1	UNK0	0.000	
@<TRIPOS>BOND
1 16 17 1
2 16 21 2
3 5 17 1
4 17 18 2
5 18 19 1
6 19 20 1
7 19 25 2
8 20 21 1
9 20 22 2
10 21 26 1
11 3 22 1
12 22 23 1
13 23 24 2
14 23 36 1
15 24 25 1
16 24 34 1
17 8 25 1
18 7 26 1
19 26 27 1
20 27 28 1
21 27 32 2
22 10 28 1
23 28 29 2
24 29 30 1
25 29 33 1
26 13 30 1
27 30 31 2
28 12 31 1
29 31 32 1
30 11 32 1
31 14 33 1
32 34 35 1
33 1 35 1
34 4 35 1
35 9 35 1
36 36 37 1
37 2 37 1
38 6 37 1
39 15 37 1
@<TRIPOS>SUBSTRUCTURE
1	UNK0	1	GROUP	1 ****	UNK
