# created with PyMOL 2.5.0
@<TRIPOS>MOLECULE
data/CDK2/cocry_dataset/1di8_DTQ_LIG.pdb
22 24 1                 
SMALL
USER_CHARGES
@<TRIPOS>ATOM
1	  N1	-11.571	206.849	110.395	N.2	1	UNK0	0.000	
2	  C1	-12.635	206.986	109.605	C.2	1	UNK0	0.000	
3	  N2	-13.856	206.516	109.861	N.2	1	UNK0	0.000	
4	  C2	-14.032	205.894	111.029	C.2	1	UNK0	0.000	
5	  C3	-13.013	205.708	111.967	C.2	1	UNK0	0.000	
6	  C4	-11.753	206.191	111.558	C.2	1	UNK0	0.000	
7	  C5	-13.339	205.127	113.225	C.2	1	UNK0	0.000	
8	  C6	-14.653	204.734	113.544	C.2	1	UNK0	0.000	
9	  C7	-15.651	204.879	112.577	C.2	1	UNK0	0.000	
10	  C8	-15.305	205.453	111.343	C.2	1	UNK0	0.000	
11	  N3	-10.611	205.962	112.380	N.pl3	1	UNK0	0.000	
12	  C9	-9.914	206.986	113.070	C.2	1	UNK0	0.000	
13	 C10	-10.292	207.355	114.369	C.2	1	UNK0	0.000	
14	 C11	-9.628	208.384	115.030	C.2	1	UNK0	0.000	
15	 C12	-8.572	209.053	114.426	C.2	1	UNK0	0.000	
16	 C13	-8.172	208.685	113.143	C.2	1	UNK0	0.000	
17	 C14	-8.835	207.651	112.471	C.2	1	UNK0	0.000	
18	  O1	-10.001	208.773	116.283	O.3	1	UNK0	0.000	
19	  O2	-16.991	204.631	112.620	O.3	1	UNK0	0.000	
20	 C15	-17.931	205.679	112.690	C.3	1	UNK0	0.000	
21	  O3	-14.891	204.508	114.874	O.3	1	UNK0	0.000	
22	 C16	-15.313	205.637	115.632	C.3	1	UNK0	0.000	
@<TRIPOS>BOND
1 1 2 1
2 1 6 2
3 2 3 2
4 3 4 1
5 4 5 1
6 4 10 2
7 5 6 1
8 5 7 2
9 6 11 1
10 7 8 1
11 8 9 2
12 8 21 1
13 9 10 1
14 9 19 1
15 11 12 1
16 12 13 1
17 12 17 2
18 13 14 2
19 14 15 1
20 14 18 1
21 15 16 2
22 16 17 1
23 19 20 1
24 21 22 1
@<TRIPOS>SUBSTRUCTURE
1	UNK0	1	GROUP	1 ****	UNK
