# created with PyMOL 2.5.0
@<TRIPOS>MOLECULE
data/CDK2/cocry_dataset/1dm2_HMD_LIG.pdb
19 21 1                 
SMALL
USER_CHARGES
@<TRIPOS>ATOM
1	 Br1	-15.615	204.672	112.479	Br	1	UNK0	0.000	
2	  C1	-16.327	205.620	114.009	C.3	1	UNK0	0.000	
3	  N1	-15.843	207.007	114.171	N.2	1	UNK0	0.000	
4	  C2	-15.261	206.964	115.344	C.2	1	UNK0	0.000	
5	  C3	-14.947	205.633	115.873	C.2	1	UNK0	0.000	
6	  C4	-15.855	204.890	115.229	C.2	1	UNK0	0.000	
7	  C5	-13.518	205.396	116.035	C.2	1	UNK0	0.000	
8	  C6	-12.641	205.302	115.009	C.2	1	UNK0	0.000	
9	  N2	-12.808	205.495	113.662	N.pl3	1	UNK0	0.000	
10	  C7	-11.586	205.426	113.064	C.2	1	UNK0	0.000	
11	  N3	-10.611	205.132	113.856	N.2	1	UNK0	0.000	
12	  C8	-11.156	205.014	115.133	C.2	1	UNK0	0.000	
13	  O1	-10.572	204.708	116.158	O.2	1	UNK0	0.000	
14	  N4	-11.532	205.648	111.743	N.pl3	1	UNK0	0.000	
15	  C9	-13.154	205.576	117.480	C.3	1	UNK0	0.000	
16	 C10	-13.951	206.724	118.155	C.3	1	UNK0	0.000	
17	  N5	-14.123	207.955	117.369	N.pl3	1	UNK0	0.000	
18	 C11	-14.842	208.158	116.195	C.2	1	UNK0	0.000	
19	  O2	-15.194	209.284	115.869	O.2	1	UNK0	0.000	
@<TRIPOS>BOND
1 1 2 1
2 2 3 1
3 2 6 1
4 3 4 2
5 4 5 1
6 4 18 1
7 5 6 2
8 5 7 1
9 7 8 2
10 7 15 1
11 8 9 1
12 8 12 1
13 9 10 1
14 10 11 2
15 10 14 1
16 11 12 1
17 12 13 2
18 15 16 1
19 16 17 1
20 17 18 1
21 18 19 2
@<TRIPOS>SUBSTRUCTURE
1	UNK0	1	GROUP	1 ****	UNK
