# created with PyMOL 2.5.0
@<TRIPOS>MOLECULE
data/CDK2/cocry_dataset/1dm2_HMD_LIG.pdb
19 21 1                 
SMALL
USER_CHARGES
@<TRIPOS>ATOM
1	 Br1	-11.259	205.506	117.563	Br	1	UNK0	0.000	
2	  C1	-10.077	205.543	116.029	C.3	1	UNK0	0.000	
3	  N1	-9.825	206.884	115.461	N.2	1	UNK0	0.000	
4	  C2	-10.276	206.758	114.238	C.2	1	UNK0	0.000	
5	  C3	-11.152	205.612	113.976	C.2	1	UNK0	0.000	
6	  C4	-10.758	204.772	114.940	C.2	1	UNK0	0.000	
7	  C5	-12.506	205.995	113.591	C.2	1	UNK0	0.000	
8	  C6	-13.387	206.604	114.415	C.2	1	UNK0	0.000	
9	  N2	-13.240	207.093	115.688	N.pl3	1	UNK0	0.000	
10	  C7	-14.382	207.750	116.030	C.2	1	UNK0	0.000	
11	  N3	-15.323	207.698	115.149	N.2	1	UNK0	0.000	
12	  C8	-14.816	206.980	114.068	C.2	1	UNK0	0.000	
13	  O1	-15.404	206.676	113.045	O.2	1	UNK0	0.000	
14	  N4	-14.413	208.353	117.228	N.pl3	1	UNK0	0.000	
15	  C9	-12.640	205.880	112.100	C.3	1	UNK0	0.000	
16	 C10	-11.347	206.302	111.353	C.3	1	UNK0	0.000	
17	  N5	-10.659	207.501	111.854	N.pl3	1	UNK0	0.000	
18	 C11	-10.012	207.703	113.071	C.2	1	UNK0	0.000	
19	  O2	-9.186	208.598	113.193	O.2	1	UNK0	0.000	
@<TRIPOS>BOND
1 1 2 1
2 2 3 1
3 2 6 1
4 3 4 2
5 4 5 1
6 4 18 1
7 5 6 2
8 5 7 1
9 7 8 2
10 7 15 1
11 8 9 1
12 8 12 1
13 9 10 1
14 10 11 2
15 10 14 1
16 11 12 1
17 12 13 2
18 15 16 1
19 16 17 1
20 17 18 1
21 18 19 2
@<TRIPOS>SUBSTRUCTURE
1	UNK0	1	GROUP	1 ****	UNK
