# created with PyMOL 2.5.0
@<TRIPOS>MOLECULE
data/CDK2/cocry_dataset/1e1v_CMG_LIG.pdb
18 20 1                 
SMALL
USER_CHARGES
@<TRIPOS>ATOM
1	  N1	-14.640	206.596	118.441	N.2	1	UNK0	0.000	
2	  C1	-14.316	206.780	117.219	C.2	1	UNK0	0.000	
3	  C2	-13.005	207.312	116.873	C.2	1	UNK0	0.000	
4	  N2	-12.432	207.611	115.752	N.2	1	UNK0	0.000	
5	  C3	-11.190	208.106	116.151	C.2	1	UNK0	0.000	
6	  N3	-10.949	208.136	117.431	N.2	1	UNK0	0.000	
7	  C4	-12.097	207.629	117.957	C.2	1	UNK0	0.000	
8	  N4	-12.387	207.467	119.186	N.2	1	UNK0	0.000	
9	  C5	-13.685	206.888	119.502	C.3	1	UNK0	0.000	
10	  N5	-14.315	207.789	120.424	N.3	1	UNK0	0.000	
11	  O1	-15.091	206.551	116.151	O.3	1	UNK0	0.000	
12	  C6	-15.453	205.183	115.890	C.3	1	UNK0	0.000	
13	  C7	-15.630	205.023	114.376	C.3	1	UNK0	0.000	
14	  C8	-14.359	204.479	113.713	C.3	1	UNK0	0.000	
15	  C9	-14.575	204.266	112.215	C.3	1	UNK0	0.000	
16	 C10	-15.057	205.538	111.521	C.3	1	UNK0	0.000	
17	 C11	-16.279	206.139	112.209	C.3	1	UNK0	0.000	
18	 C12	-16.047	206.341	113.704	C.3	1	UNK0	0.000	
@<TRIPOS>BOND
1 1 2 2
2 1 9 1
3 2 3 1
4 2 11 1
5 3 4 2
6 3 7 1
7 4 5 1
8 5 6 2
9 6 7 1
10 7 8 2
11 8 9 1
12 9 10 1
13 11 12 1
14 12 13 1
15 13 14 1
16 13 18 1
17 14 15 1
18 15 16 1
19 16 17 1
20 17 18 1
@<TRIPOS>SUBSTRUCTURE
1	UNK0	1	GROUP	1 ****	UNK
