# created with PyMOL 2.5.0
@<TRIPOS>MOLECULE
data/CDK2/cocry_dataset/1e1v_CMG_LIG.pdb
35 37 1                 
SMALL
USER_CHARGES
@<TRIPOS>ATOM
1	 H01	-16.928	205.498	111.430	 H	1	UNK0	0.000	
2	 H03	-14.227	208.465	117.499	 H	1	UNK0	0.000	
3	 H02	-13.376	206.965	115.950	 H	1	UNK0	0.000	
4	 H08	-17.945	203.440	118.957	 H	1	UNK0	0.000	
5	 H07	-17.342	202.139	116.971	 H	1	UNK0	0.000	
6	 H06	-14.714	203.040	117.110	 H	1	UNK0	0.000	
7	 H04	-14.867	209.158	116.145	 H	1	UNK0	0.000	
8	 H09	-16.636	202.650	119.888	 H	1	UNK0	0.000	
9	 H16	-15.103	201.023	118.698	 H	1	UNK0	0.000	
10	 H11	-18.764	201.579	120.397	 H	1	UNK0	0.000	
11	 H14	-17.466	199.648	117.393	 H	1	UNK0	0.000	
12	 H13	-16.910	200.040	120.345	 H	1	UNK0	0.000	
13	 H12	-18.335	199.255	119.576	 H	1	UNK0	0.000	
14	 H15	-16.179	198.864	118.372	 H	1	UNK0	0.000	
15	 H10	-19.063	201.321	118.643	 H	1	UNK0	0.000	
16	 H05	-15.593	204.108	118.211	 H	1	UNK0	0.000	
17	 H17	-15.329	200.719	116.948	 H	1	UNK0	0.000	
18	  N1	-15.019	206.007	116.545	N.2	1	UNK0	0.000	
19	  C1	-15.714	205.206	115.830	C.2	1	UNK0	0.000	
20	  C2	-15.960	205.493	114.424	C.2	1	UNK0	0.000	
21	  N2	-16.626	204.888	113.494	N.2	1	UNK0	0.000	
22	  C3	-16.474	205.731	112.393	C.2	1	UNK0	0.000	
23	  N3	-15.766	206.811	112.568	N.2	1	UNK0	0.000	
24	  C4	-15.401	206.713	113.875	C.2	1	UNK0	0.000	
25	  N4	-14.712	207.538	114.557	N.2	1	UNK0	0.000	
26	  C5	-14.440	207.202	115.947	C.3	1	UNK0	0.000	
27	  N5	-14.863	208.331	116.725	N.3	1	UNK0	0.000	
28	  O1	-16.297	204.076	116.248	O.3	1	UNK0	0.000	
29	  C6	-15.702	203.413	117.378	C.3	1	UNK0	0.000	
30	  C7	-16.612	202.245	117.773	C.3	1	UNK0	0.000	
31	  C8	-17.359	202.529	119.081	C.3	1	UNK0	0.000	
32	  C9	-18.308	201.381	119.427	C.3	1	UNK0	0.000	
33	 C10	-17.583	200.038	119.487	C.3	1	UNK0	0.000	
34	 C11	-16.770	199.767	118.224	C.3	1	UNK0	0.000	
35	 C12	-15.832	200.925	117.893	C.3	1	UNK0	0.000	
@<TRIPOS>BOND
1 18 19 2
2 18 26 1
3 19 20 1
4 19 28 1
5 20 21 2
6 20 24 1
7 21 22 1
8 1 22 1
9 22 23 2
10 23 24 1
11 24 25 2
12 25 26 1
13 3 26 1
14 26 27 1
15 2 27 1
16 7 27 1
17 28 29 1
18 6 29 1
19 16 29 1
20 29 30 1
21 5 30 1
22 30 31 1
23 30 35 1
24 4 31 1
25 8 31 1
26 31 32 1
27 10 32 1
28 15 32 1
29 32 33 1
30 12 33 1
31 13 33 1
32 33 34 1
33 11 34 1
34 14 34 1
35 34 35 1
36 9 35 1
37 17 35 1
@<TRIPOS>SUBSTRUCTURE
1	UNK0	1	GROUP	1 ****	UNK
