# created with PyMOL 2.5.0
@<TRIPOS>MOLECULE
data/CDK2/cocry_dataset/1e1v_CMG_LIG.pdb
35 37 1                 
SMALL
USER_CHARGES
@<TRIPOS>ATOM
1	 H01	-18.648	200.386	118.373	 H	1	UNK0	0.000	
2	 H03	-13.360	203.273	120.646	 H	1	UNK0	0.000	
3	 H02	-15.192	204.952	119.924	 H	1	UNK0	0.000	
4	 H08	-13.436	204.065	112.882	 H	1	UNK0	0.000	
5	 H07	-15.788	203.726	113.479	 H	1	UNK0	0.000	
6	 H06	-14.432	205.335	115.653	 H	1	UNK0	0.000	
7	 H04	-13.071	203.098	119.031	 H	1	UNK0	0.000	
8	 H09	-13.606	205.825	113.161	 H	1	UNK0	0.000	
9	 H16	-15.815	206.718	114.019	 H	1	UNK0	0.000	
10	 H11	-13.759	205.355	110.776	 H	1	UNK0	0.000	
11	 H14	-17.345	205.060	111.997	 H	1	UNK0	0.000	
12	 H13	-15.207	207.144	111.490	 H	1	UNK0	0.000	
13	 H12	-16.086	206.136	110.286	 H	1	UNK0	0.000	
14	 H15	-17.476	206.835	112.243	 H	1	UNK0	0.000	
15	 H10	-15.054	204.146	111.089	 H	1	UNK0	0.000	
16	 H05	-14.013	203.666	115.246	 H	1	UNK0	0.000	
17	 H17	-17.150	205.577	114.365	 H	1	UNK0	0.000	
18	  N1	-14.890	204.365	118.043	N.2	1	UNK0	0.000	
19	  C1	-15.739	203.751	117.310	C.2	1	UNK0	0.000	
20	  C2	-16.589	202.713	117.874	C.2	1	UNK0	0.000	
21	  N2	-17.495	201.935	117.375	N.2	1	UNK0	0.000	
22	  C3	-17.883	201.156	118.466	C.2	1	UNK0	0.000	
23	  N3	-17.289	201.392	119.602	N.2	1	UNK0	0.000	
24	  C4	-16.432	202.399	119.280	C.2	1	UNK0	0.000	
25	  N4	-15.593	202.982	120.039	N.2	1	UNK0	0.000	
26	  C5	-14.790	204.050	119.462	C.3	1	UNK0	0.000	
27	  N5	-13.421	203.723	119.743	N.3	1	UNK0	0.000	
28	  O1	-15.938	203.943	116.000	O.3	1	UNK0	0.000	
29	  C6	-14.814	204.406	115.230	C.3	1	UNK0	0.000	
30	  C7	-15.292	204.644	113.794	C.3	1	UNK0	0.000	
31	  C8	-14.117	204.916	112.846	C.3	1	UNK0	0.000	
32	  C9	-14.607	205.088	111.408	C.3	1	UNK0	0.000	
33	 C10	-15.671	206.178	111.293	C.3	1	UNK0	0.000	
34	 C11	-16.815	205.969	112.281	C.3	1	UNK0	0.000	
35	 C12	-16.307	205.796	113.710	C.3	1	UNK0	0.000	
@<TRIPOS>BOND
1 18 19 2
2 18 26 1
3 19 20 1
4 19 28 1
5 20 21 2
6 20 24 1
7 21 22 1
8 1 22 1
9 22 23 2
10 23 24 1
11 24 25 2
12 25 26 1
13 3 26 1
14 26 27 1
15 2 27 1
16 7 27 1
17 28 29 1
18 6 29 1
19 16 29 1
20 29 30 1
21 5 30 1
22 30 31 1
23 30 35 1
24 4 31 1
25 8 31 1
26 31 32 1
27 10 32 1
28 15 32 1
29 32 33 1
30 12 33 1
31 13 33 1
32 33 34 1
33 11 34 1
34 14 34 1
35 34 35 1
36 9 35 1
37 17 35 1
@<TRIPOS>SUBSTRUCTURE
1	UNK0	1	GROUP	1 ****	UNK
