# created with PyMOL 2.5.0
@<TRIPOS>MOLECULE
data/CDK2/cocry_dataset/1e1v_CMG_LIG.pdb
18 20 1                 
SMALL
USER_CHARGES
@<TRIPOS>ATOM
1	  N1	-14.890	204.365	118.043	N.2	1	UNK0	0.000	
2	  C1	-15.739	203.751	117.310	C.2	1	UNK0	0.000	
3	  C2	-16.589	202.713	117.874	C.2	1	UNK0	0.000	
4	  N2	-17.495	201.935	117.375	N.2	1	UNK0	0.000	
5	  C3	-17.883	201.156	118.466	C.2	1	UNK0	0.000	
6	  N3	-17.289	201.392	119.602	N.2	1	UNK0	0.000	
7	  C4	-16.432	202.399	119.280	C.2	1	UNK0	0.000	
8	  N4	-15.593	202.982	120.039	N.2	1	UNK0	0.000	
9	  C5	-14.790	204.050	119.462	C.3	1	UNK0	0.000	
10	  N5	-13.421	203.723	119.743	N.3	1	UNK0	0.000	
11	  O1	-15.938	203.943	116.000	O.3	1	UNK0	0.000	
12	  C6	-14.814	204.406	115.230	C.3	1	UNK0	0.000	
13	  C7	-15.292	204.644	113.794	C.3	1	UNK0	0.000	
14	  C8	-14.117	204.916	112.846	C.3	1	UNK0	0.000	
15	  C9	-14.607	205.088	111.408	C.3	1	UNK0	0.000	
16	 C10	-15.671	206.178	111.293	C.3	1	UNK0	0.000	
17	 C11	-16.815	205.969	112.281	C.3	1	UNK0	0.000	
18	 C12	-16.307	205.796	113.710	C.3	1	UNK0	0.000	
@<TRIPOS>BOND
1 1 2 2
2 1 9 1
3 2 3 1
4 2 11 1
5 3 4 2
6 3 7 1
7 4 5 1
8 5 6 2
9 6 7 1
10 7 8 2
11 8 9 1
12 9 10 1
13 11 12 1
14 12 13 1
15 13 14 1
16 13 18 1
17 14 15 1
18 15 16 1
19 16 17 1
20 17 18 1
@<TRIPOS>SUBSTRUCTURE
1	UNK0	1	GROUP	1 ****	UNK
