# created with PyMOL 2.5.0
@<TRIPOS>MOLECULE
data/CDK2/cocry_dataset/1e1v_CMG_LIG.pdb
18 20 1                 
SMALL
USER_CHARGES
@<TRIPOS>ATOM
1	  N1	-15.019	206.007	116.545	N.2	1	UNK0	0.000	
2	  C1	-15.714	205.206	115.830	C.2	1	UNK0	0.000	
3	  C2	-15.960	205.493	114.424	C.2	1	UNK0	0.000	
4	  N2	-16.626	204.888	113.494	N.2	1	UNK0	0.000	
5	  C3	-16.474	205.731	112.393	C.2	1	UNK0	0.000	
6	  N3	-15.766	206.811	112.568	N.2	1	UNK0	0.000	
7	  C4	-15.401	206.713	113.875	C.2	1	UNK0	0.000	
8	  N4	-14.712	207.538	114.557	N.2	1	UNK0	0.000	
9	  C5	-14.440	207.202	115.947	C.3	1	UNK0	0.000	
10	  N5	-14.863	208.331	116.725	N.3	1	UNK0	0.000	
11	  O1	-16.297	204.076	116.248	O.3	1	UNK0	0.000	
12	  C6	-15.702	203.413	117.378	C.3	1	UNK0	0.000	
13	  C7	-16.612	202.245	117.773	C.3	1	UNK0	0.000	
14	  C8	-17.359	202.529	119.081	C.3	1	UNK0	0.000	
15	  C9	-18.308	201.381	119.427	C.3	1	UNK0	0.000	
16	 C10	-17.583	200.038	119.487	C.3	1	UNK0	0.000	
17	 C11	-16.770	199.767	118.224	C.3	1	UNK0	0.000	
18	 C12	-15.832	200.925	117.893	C.3	1	UNK0	0.000	
@<TRIPOS>BOND
1 1 2 2
2 1 9 1
3 2 3 1
4 2 11 1
5 3 4 2
6 3 7 1
7 4 5 1
8 5 6 2
9 6 7 1
10 7 8 2
11 8 9 1
12 9 10 1
13 11 12 1
14 12 13 1
15 13 14 1
16 13 18 1
17 14 15 1
18 15 16 1
19 16 17 1
20 17 18 1
@<TRIPOS>SUBSTRUCTURE
1	UNK0	1	GROUP	1 ****	UNK
