# created with PyMOL 2.5.0
@<TRIPOS>MOLECULE
data/CDK2/cocry_dataset/1e1x_NW1_LIG.pdb
35 36 1                 
SMALL
USER_CHARGES
@<TRIPOS>ATOM
1	 H01	-14.828	209.382	116.164	 H	1	UNK0	0.000	
2	 H03	-11.721	203.070	119.223	 H	1	UNK0	0.000	
3	 H02	-14.202	208.840	118.606	 H	1	UNK0	0.000	
4	 H08	-13.420	203.909	112.657	 H	1	UNK0	0.000	
5	 H07	-15.733	203.623	113.304	 H	1	UNK0	0.000	
6	 H06	-14.518	203.209	115.195	 H	1	UNK0	0.000	
7	 H04	-11.823	204.175	120.575	 H	1	UNK0	0.000	
8	 H09	-13.470	205.659	113.094	 H	1	UNK0	0.000	
9	 H16	-15.775	206.564	113.990	 H	1	UNK0	0.000	
10	 H11	-13.596	205.429	110.689	 H	1	UNK0	0.000	
11	 H14	-17.182	205.085	111.753	 H	1	UNK0	0.000	
12	 H13	-15.004	207.189	111.595	 H	1	UNK0	0.000	
13	 H12	-15.845	206.394	110.227	 H	1	UNK0	0.000	
14	 H15	-17.348	206.828	112.152	 H	1	UNK0	0.000	
15	 H10	-14.938	204.250	110.846	 H	1	UNK0	0.000	
16	 H05	-15.473	204.627	115.763	 H	1	UNK0	0.000	
17	 H17	-17.120	205.388	114.167	 H	1	UNK0	0.000	
18	  N1	-12.694	204.542	117.490	N.2	1	UNK0	0.000	
19	  C1	-13.284	205.330	116.656	C.2	1	UNK0	0.000	
20	  C2	-13.783	206.694	117.087	C.2	1	UNK0	0.000	
21	  N2	-14.422	207.478	116.256	N.2	1	UNK0	0.000	
22	  O1	-14.812	208.697	116.837	O.3	1	UNK0	0.000	
23	  C3	-13.455	206.982	118.532	C.2	1	UNK0	0.000	
24	  N3	-13.740	208.103	119.120	N.2	1	UNK0	0.000	
25	  N4	-12.838	206.047	119.304	N.2	1	UNK0	0.000	
26	  C4	-12.528	204.907	118.791	C.2	1	UNK0	0.000	
27	  N5	-11.977	203.972	119.597	N.pl3	1	UNK0	0.000	
28	  O2	-13.487	205.002	115.358	O.3	1	UNK0	0.000	
29	  C5	-14.708	204.275	115.072	C.3	1	UNK0	0.000	
30	  C6	-15.220	204.525	113.638	C.3	1	UNK0	0.000	
31	  C7	-14.030	204.811	112.699	C.3	1	UNK0	0.000	
32	  C8	-14.470	205.137	111.272	C.3	1	UNK0	0.000	
33	  C9	-15.485	206.274	111.249	C.3	1	UNK0	0.000	
34	 C10	-16.678	205.968	112.147	C.3	1	UNK0	0.000	
35	 C11	-16.244	205.668	113.582	C.3	1	UNK0	0.000	
@<TRIPOS>BOND
1 18 19 2
2 18 26 1
3 19 20 1
4 19 28 1
5 20 21 2
6 20 23 1
7 21 22 1
8 1 22 1
9 23 24 2
10 23 25 1
11 3 24 1
12 25 26 2
13 26 27 1
14 2 27 1
15 7 27 1
16 28 29 1
17 6 29 1
18 16 29 1
19 29 30 1
20 5 30 1
21 30 31 1
22 30 35 1
23 4 31 1
24 8 31 1
25 31 32 1
26 10 32 1
27 15 32 1
28 32 33 1
29 12 33 1
30 13 33 1
31 33 34 1
32 11 34 1
33 14 34 1
34 34 35 1
35 9 35 1
36 17 35 1
@<TRIPOS>SUBSTRUCTURE
1	UNK0	1	GROUP	1 ****	UNK
