# created with PyMOL 2.5.0
@<TRIPOS>MOLECULE
data/CDK2/cocry_dataset/1e1x_NW1_LIG.pdb
18 19 1                 
SMALL
USER_CHARGES
@<TRIPOS>ATOM
1	  N1	-17.249	203.249	117.431	N.2	1	UNK0	0.000	
2	  C1	-16.022	202.896	117.248	C.2	1	UNK0	0.000	
3	  C2	-15.558	201.487	117.555	C.2	1	UNK0	0.000	
4	  N2	-14.305	201.137	117.414	N.2	1	UNK0	0.000	
5	  O1	-14.064	199.794	117.753	O.3	1	UNK0	0.000	
6	  C3	-16.694	200.612	118.027	C.2	1	UNK0	0.000	
7	  N3	-16.556	199.352	118.311	N.2	1	UNK0	0.000	
8	  N4	-17.944	201.122	118.191	N.2	1	UNK0	0.000	
9	  C4	-18.157	202.367	117.933	C.2	1	UNK0	0.000	
10	  N5	-19.391	202.866	118.169	N.pl3	1	UNK0	0.000	
11	  O2	-15.081	203.742	116.768	O.3	1	UNK0	0.000	
12	  C5	-15.577	204.907	116.062	C.3	1	UNK0	0.000	
13	  C6	-15.775	204.643	114.555	C.3	1	UNK0	0.000	
14	  C7	-14.426	204.276	113.905	C.3	1	UNK0	0.000	
15	  C8	-14.535	204.068	112.395	C.3	1	UNK0	0.000	
16	  C9	-15.173	205.273	111.713	C.3	1	UNK0	0.000	
17	 C10	-16.525	205.607	112.332	C.3	1	UNK0	0.000	
18	 C11	-16.414	205.842	113.840	C.3	1	UNK0	0.000	
@<TRIPOS>BOND
1 1 2 2
2 1 9 1
3 2 3 1
4 2 11 1
5 3 4 2
6 3 6 1
7 4 5 1
8 6 7 2
9 6 8 1
10 8 9 2
11 9 10 1
12 11 12 1
13 12 13 1
14 13 14 1
15 13 18 1
16 14 15 1
17 15 16 1
18 16 17 1
19 17 18 1
@<TRIPOS>SUBSTRUCTURE
1	UNK0	1	GROUP	1 ****	UNK
