# created with PyMOL 2.5.0
@<TRIPOS>MOLECULE
data/CDK2/cocry_dataset/1e1x_NW1_LIG.pdb
35 36 1                 
SMALL
USER_CHARGES
@<TRIPOS>ATOM
1	  N1	-17.249	203.249	117.431	N.2	1	UNK0	0.000	
2	  C1	-16.022	202.896	117.248	C.2	1	UNK0	0.000	
3	  C2	-15.558	201.487	117.555	C.2	1	UNK0	0.000	
4	  N2	-14.305	201.137	117.414	N.2	1	UNK0	0.000	
5	  O1	-14.064	199.794	117.753	O.3	1	UNK0	0.000	
6	  C3	-16.694	200.612	118.027	C.2	1	UNK0	0.000	
7	  N3	-16.556	199.352	118.311	N.2	1	UNK0	0.000	
8	  N4	-17.944	201.122	118.191	N.2	1	UNK0	0.000	
9	  C4	-18.157	202.367	117.933	C.2	1	UNK0	0.000	
10	  N5	-19.391	202.866	118.169	N.pl3	1	UNK0	0.000	
11	  O2	-15.081	203.742	116.768	O.3	1	UNK0	0.000	
12	  C5	-15.577	204.907	116.062	C.3	1	UNK0	0.000	
13	  C6	-15.775	204.643	114.555	C.3	1	UNK0	0.000	
14	  C7	-14.426	204.276	113.905	C.3	1	UNK0	0.000	
15	  C8	-14.535	204.068	112.395	C.3	1	UNK0	0.000	
16	  C9	-15.173	205.273	111.713	C.3	1	UNK0	0.000	
17	 C10	-16.525	205.607	112.332	C.3	1	UNK0	0.000	
18	 C11	-16.414	205.842	113.840	C.3	1	UNK0	0.000	
19	 H01	-13.948	199.277	116.953	 H	1	UNK0	0.000	
20	 H02	-15.654	198.909	118.215	 H	1	UNK0	0.000	
21	 H03	-19.589	203.837	117.974	 H	1	UNK0	0.000	
22	 H04	-20.116	202.267	118.539	 H	1	UNK0	0.000	
23	 H05	-14.834	205.698	116.165	 H	1	UNK0	0.000	
24	 H06	-16.533	205.199	116.496	 H	1	UNK0	0.000	
25	 H07	-16.465	203.806	114.450	 H	1	UNK0	0.000	
26	 H08	-14.095	203.334	114.344	 H	1	UNK0	0.000	
27	 H09	-13.715	205.080	114.097	 H	1	UNK0	0.000	
28	 H10	-15.165	203.197	112.214	 H	1	UNK0	0.000	
29	 H11	-13.537	203.914	111.985	 H	1	UNK0	0.000	
30	 H12	-15.326	205.031	110.661	 H	1	UNK0	0.000	
31	 H13	-14.512	206.133	111.817	 H	1	UNK0	0.000	
32	 H14	-17.192	204.760	112.169	 H	1	UNK0	0.000	
33	 H15	-16.918	206.508	111.861	 H	1	UNK0	0.000	
34	 H16	-15.779	206.713	114.002	 H	1	UNK0	0.000	
35	 H17	-17.412	206.007	114.247	 H	1	UNK0	0.000	
@<TRIPOS>BOND
1 1 2 2
2 1 9 1
3 2 11 1
4 2 3 1
5 11 12 1
6 12 13 1
7 13 14 1
8 13 18 1
9 14 15 1
10 15 16 1
11 16 17 1
12 17 18 1
13 3 4 2
14 3 6 1
15 4 5 1
16 6 7 2
17 6 8 1
18 8 9 2
19 9 10 1
20 5 19 1
21 7 20 1
22 10 21 1
23 10 22 1
24 12 23 1
25 12 24 1
26 13 25 1
27 14 26 1
28 14 27 1
29 15 28 1
30 15 29 1
31 16 30 1
32 16 31 1
33 17 32 1
34 17 33 1
35 18 34 1
36 18 35 1
@<TRIPOS>SUBSTRUCTURE
1	UNK0	1	GROUP	1 ****	UNK
