# created with PyMOL 2.5.0
@<TRIPOS>MOLECULE
data/CDK2/cocry_dataset/1e1x_NW1_LIG.pdb
18 19 1                 
SMALL
USER_CHARGES
@<TRIPOS>ATOM
1	  N1	-12.694	204.542	117.490	N.2	1	UNK0	0.000	
2	  C1	-13.284	205.330	116.656	C.2	1	UNK0	0.000	
3	  C2	-13.783	206.694	117.087	C.2	1	UNK0	0.000	
4	  N2	-14.422	207.478	116.256	N.2	1	UNK0	0.000	
5	  O1	-14.812	208.697	116.837	O.3	1	UNK0	0.000	
6	  C3	-13.455	206.982	118.532	C.2	1	UNK0	0.000	
7	  N3	-13.740	208.103	119.120	N.2	1	UNK0	0.000	
8	  N4	-12.838	206.047	119.304	N.2	1	UNK0	0.000	
9	  C4	-12.528	204.907	118.791	C.2	1	UNK0	0.000	
10	  N5	-11.977	203.972	119.597	N.pl3	1	UNK0	0.000	
11	  O2	-13.487	205.002	115.358	O.3	1	UNK0	0.000	
12	  C5	-14.708	204.275	115.072	C.3	1	UNK0	0.000	
13	  C6	-15.220	204.525	113.638	C.3	1	UNK0	0.000	
14	  C7	-14.030	204.811	112.699	C.3	1	UNK0	0.000	
15	  C8	-14.470	205.137	111.272	C.3	1	UNK0	0.000	
16	  C9	-15.485	206.274	111.249	C.3	1	UNK0	0.000	
17	 C10	-16.678	205.968	112.147	C.3	1	UNK0	0.000	
18	 C11	-16.244	205.668	113.582	C.3	1	UNK0	0.000	
@<TRIPOS>BOND
1 1 2 2
2 1 9 1
3 2 3 1
4 2 11 1
5 3 4 2
6 3 6 1
7 4 5 1
8 6 7 2
9 6 8 1
10 8 9 2
11 9 10 1
12 11 12 1
13 12 13 1
14 13 14 1
15 13 18 1
16 14 15 1
17 15 16 1
18 16 17 1
19 17 18 1
@<TRIPOS>SUBSTRUCTURE
1	UNK0	1	GROUP	1 ****	UNK
