# created with PyMOL 2.5.0
@<TRIPOS>MOLECULE
data/CDK2/cocry_dataset/1e1x_NW1_LIG.pdb
18 19 1                 
SMALL
USER_CHARGES
@<TRIPOS>ATOM
1	  N1	-8.932	207.044	112.401	N.2	1	UNK0	0.000	
2	  C1	-9.755	206.976	113.392	C.2	1	UNK0	0.000	
3	  C2	-9.603	207.877	114.600	C.2	1	UNK0	0.000	
4	  N2	-10.409	207.781	115.627	N.2	1	UNK0	0.000	
5	  O1	-10.108	208.693	116.653	O.3	1	UNK0	0.000	
6	  C3	-8.447	208.835	114.444	C.2	1	UNK0	0.000	
7	  N3	-8.141	209.736	115.328	N.2	1	UNK0	0.000	
8	  N4	-7.646	208.786	113.346	N.2	1	UNK0	0.000	
9	  C4	-7.885	207.914	112.428	C.2	1	UNK0	0.000	
10	  N5	-7.035	207.841	111.380	N.pl3	1	UNK0	0.000	
11	  O2	-10.800	206.115	113.417	O.3	1	UNK0	0.000	
12	  C5	-11.578	206.027	112.198	C.3	1	UNK0	0.000	
13	  C6	-13.098	206.017	112.468	C.3	1	UNK0	0.000	
14	  C7	-13.448	204.875	113.444	C.3	1	UNK0	0.000	
15	  C8	-14.950	204.761	113.703	C.3	1	UNK0	0.000	
16	  C9	-15.732	204.641	112.400	C.3	1	UNK0	0.000	
17	 C10	-15.412	205.793	111.455	C.3	1	UNK0	0.000	
18	 C11	-13.912	205.893	111.172	C.3	1	UNK0	0.000	
@<TRIPOS>BOND
1 1 2 2
2 1 9 1
3 2 3 1
4 2 11 1
5 3 4 2
6 3 6 1
7 4 5 1
8 6 7 2
9 6 8 1
10 8 9 2
11 9 10 1
12 11 12 1
13 12 13 1
14 13 14 1
15 13 18 1
16 14 15 1
17 15 16 1
18 16 17 1
19 17 18 1
@<TRIPOS>SUBSTRUCTURE
1	UNK0	1	GROUP	1 ****	UNK
