# created with PyMOL 2.5.0
@<TRIPOS>MOLECULE
data/CDK2/cocry_dataset/1e9h_INR_LIG.pdb
24 27 1                 
SMALL
USER_CHARGES
@<TRIPOS>ATOM
1	  C1	-11.517	206.031	111.331	C.3	1	UNK0	0.000	
2	  C2	-11.332	206.600	109.925	C.2	1	UNK0	0.000	
3	  O1	-10.277	206.742	109.331	O.2	1	UNK0	0.000	
4	  N1	-12.599	206.880	109.415	N.pl3	1	UNK0	0.000	
5	  C3	-13.589	206.601	110.342	C.2	1	UNK0	0.000	
6	  C4	-13.008	206.135	111.522	C.2	1	UNK0	0.000	
7	  C5	-13.795	205.758	112.594	C.2	1	UNK0	0.000	
8	  C6	-15.179	205.843	112.432	C.2	1	UNK0	0.000	
9	  C7	-15.765	206.314	111.245	C.2	1	UNK0	0.000	
10	  C8	-14.955	206.710	110.177	C.2	1	UNK0	0.000	
11	  C9	-9.453	208.029	113.525	C.2	1	UNK0	0.000	
12	 C10	-9.641	206.999	114.447	C.2	1	UNK0	0.000	
13	 C11	-9.098	206.999	115.716	C.2	1	UNK0	0.000	
14	 C12	-8.317	208.103	116.066	C.2	1	UNK0	0.000	
15	 C13	-8.107	209.154	115.152	C.2	1	UNK0	0.000	
16	 C14	-8.679	209.120	113.873	C.2	1	UNK0	0.000	
17	 C15	-10.460	206.020	113.749	C.2	1	UNK0	0.000	
18	  O2	-10.816	204.925	114.106	O.2	1	UNK0	0.000	
19	 C16	-10.711	206.676	112.393	C.2	1	UNK0	0.000	
20	  N2	-10.095	207.826	112.287	N.2	1	UNK0	0.000	
21	  S1	-16.191	205.292	113.715	S.3	1	UNK0	0.000	
22	  O3	-17.662	204.940	113.188	O.3	1	UNK0	0.000	
23	  O4	-15.629	203.976	114.435	O.3	1	UNK0	0.000	
24	  O5	-16.370	206.422	114.832	O.3	1	UNK0	0.000	
@<TRIPOS>BOND
1 1 2 1
2 1 6 1
3 1 19 1
4 2 3 2
5 2 4 1
6 4 5 1
7 5 6 1
8 5 10 2
9 6 7 2
10 7 8 1
11 8 9 2
12 8 21 1
13 9 10 1
14 11 12 1
15 11 16 2
16 11 20 1
17 12 13 2
18 12 17 1
19 13 14 1
20 14 15 2
21 15 16 1
22 17 18 2
23 17 19 1
24 19 20 2
25 21 22 1
26 21 23 1
27 21 24 1
@<TRIPOS>SUBSTRUCTURE
1	UNK0	1	GROUP	1 ****	UNK
