# created with PyMOL 2.5.0
@<TRIPOS>MOLECULE
data/CDK2/cocry_dataset/1e9h_INR_LIG.pdb
36 39 1                 
SMALL
USER_CHARGES
@<TRIPOS>ATOM
1	  C1	-11.517	206.031	111.331	C.3	1	UNK0	0.000	
2	  C2	-11.332	206.600	109.925	C.2	1	UNK0	0.000	
3	  O1	-10.277	206.742	109.331	O.2	1	UNK0	0.000	
4	  N1	-12.599	206.880	109.415	N.pl3	1	UNK0	0.000	
5	  C3	-13.589	206.601	110.342	C.2	1	UNK0	0.000	
6	  C4	-13.008	206.135	111.522	C.2	1	UNK0	0.000	
7	  C5	-13.795	205.758	112.594	C.2	1	UNK0	0.000	
8	  C6	-15.179	205.843	112.432	C.2	1	UNK0	0.000	
9	  C7	-15.765	206.314	111.245	C.2	1	UNK0	0.000	
10	  C8	-14.955	206.710	110.177	C.2	1	UNK0	0.000	
11	  C9	-9.453	208.029	113.525	C.2	1	UNK0	0.000	
12	 C10	-9.641	206.999	114.447	C.2	1	UNK0	0.000	
13	 C11	-9.098	206.999	115.716	C.2	1	UNK0	0.000	
14	 C12	-8.317	208.103	116.066	C.2	1	UNK0	0.000	
15	 C13	-8.107	209.154	115.152	C.2	1	UNK0	0.000	
16	 C14	-8.679	209.120	113.873	C.2	1	UNK0	0.000	
17	 C15	-10.460	206.020	113.749	C.2	1	UNK0	0.000	
18	  O2	-10.816	204.925	114.106	O.2	1	UNK0	0.000	
19	 C16	-10.711	206.676	112.393	C.2	1	UNK0	0.000	
20	  N2	-10.095	207.826	112.287	N.2	1	UNK0	0.000	
21	  S1	-16.191	205.292	113.715	S.3	1	UNK0	0.000	
22	  O3	-17.662	204.940	113.188	O.3	1	UNK0	0.000	
23	  O4	-15.629	203.976	114.435	O.3	1	UNK0	0.000	
24	  O5	-16.370	206.422	114.832	O.3	1	UNK0	0.000	
25	 H01	-11.140	205.013	111.421	 H	1	UNK0	0.000	
26	 H02	-12.773	207.240	108.488	 H	1	UNK0	0.000	
27	 H03	-13.353	205.408	113.527	 H	1	UNK0	0.000	
28	 H04	-16.850	206.370	111.158	 H	1	UNK0	0.000	
29	 H05	-15.385	207.090	109.251	 H	1	UNK0	0.000	
30	 H06	-9.269	206.177	116.411	 H	1	UNK0	0.000	
31	 H07	-7.866	208.152	117.057	 H	1	UNK0	0.000	
32	 H08	-7.491	210.004	115.443	 H	1	UNK0	0.000	
33	 H09	-8.517	209.936	113.168	 H	1	UNK0	0.000	
34	 H10	-17.994	204.170	113.656	 H	1	UNK0	0.000	
35	 H11	-15.457	203.299	113.776	 H	1	UNK0	0.000	
36	 H12	-16.126	207.275	114.467	 H	1	UNK0	0.000	
@<TRIPOS>BOND
1 11 12 1
2 11 16 2
3 11 20 1
4 12 13 2
5 12 17 1
6 13 14 1
7 14 15 2
8 15 16 1
9 17 18 2
10 17 19 1
11 19 20 2
12 1 2 1
13 1 6 1
14 1 19 1
15 2 3 2
16 2 4 1
17 4 5 1
18 5 6 1
19 5 10 2
20 6 7 2
21 7 8 1
22 8 9 2
23 8 21 1
24 9 10 1
25 21 22 1
26 21 23 1
27 21 24 1
28 1 25 1
29 4 26 1
30 7 27 1
31 9 28 1
32 10 29 1
33 13 30 1
34 14 31 1
35 15 32 1
36 16 33 1
37 22 34 1
38 23 35 1
39 24 36 1
@<TRIPOS>SUBSTRUCTURE
1	UNK0	1	GROUP	1 ****	UNK
