# created with PyMOL 2.5.0
@<TRIPOS>MOLECULE
data/CDK2/cocry_dataset/1e9h_INR_LIG.pdb
24 27 1                 
SMALL
USER_CHARGES
@<TRIPOS>ATOM
1	  C1	-11.525	204.860	114.831	C.3	1	UNK0	0.000	
2	  C2	-11.626	204.562	116.327	C.2	1	UNK0	0.000	
3	  O1	-12.368	203.753	116.858	O.2	1	UNK0	0.000	
4	  N1	-10.675	205.347	116.977	N.pl3	1	UNK0	0.000	
5	  C3	-9.993	206.156	116.084	C.2	1	UNK0	0.000	
6	  C4	-10.482	205.948	114.794	C.2	1	UNK0	0.000	
7	  C5	-9.938	206.620	113.717	C.2	1	UNK0	0.000	
8	  C6	-8.875	207.488	113.976	C.2	1	UNK0	0.000	
9	  C7	-8.382	207.700	115.274	C.2	1	UNK0	0.000	
10	  C8	-8.956	207.027	116.356	C.2	1	UNK0	0.000	
11	  C9	-14.863	205.705	113.733	C.2	1	UNK0	0.000	
12	 C10	-14.333	205.625	112.446	C.2	1	UNK0	0.000	
13	 C11	-15.070	205.844	111.299	C.2	1	UNK0	0.000	
14	 C12	-16.421	206.156	111.470	C.2	1	UNK0	0.000	
15	 C13	-16.982	206.237	112.760	C.2	1	UNK0	0.000	
16	 C14	-16.200	206.012	113.901	C.2	1	UNK0	0.000	
17	 C15	-12.939	205.256	112.640	C.2	1	UNK0	0.000	
18	  O2	-12.096	204.991	111.819	O.2	1	UNK0	0.000	
19	 C16	-12.799	205.202	114.159	C.2	1	UNK0	0.000	
20	  N2	-13.936	205.442	114.762	N.2	1	UNK0	0.000	
21	  S1	-8.112	208.271	112.643	S.3	1	UNK0	0.000	
22	  O3	-8.011	207.298	111.374	O.3	1	UNK0	0.000	
23	  O4	-8.891	209.585	112.159	O.3	1	UNK0	0.000	
24	  O5	-6.614	208.697	113.005	O.3	1	UNK0	0.000	
@<TRIPOS>BOND
1 1 2 1
2 1 6 1
3 1 19 1
4 2 3 2
5 2 4 1
6 4 5 1
7 5 6 1
8 5 10 2
9 6 7 2
10 7 8 1
11 8 9 2
12 8 21 1
13 9 10 1
14 11 12 1
15 11 16 2
16 11 20 1
17 12 13 2
18 12 17 1
19 13 14 1
20 14 15 2
21 15 16 1
22 17 18 2
23 17 19 1
24 19 20 2
25 21 22 1
26 21 23 1
27 21 24 1
@<TRIPOS>SUBSTRUCTURE
1	UNK0	1	GROUP	1 ****	UNK
