# created with PyMOL 2.5.0
@<TRIPOS>MOLECULE
data/CDK2/cocry_dataset/1e9h_INR_LIG.pdb
36 39 1                 
SMALL
USER_CHARGES
@<TRIPOS>ATOM
1	 H04	-15.656	208.191	114.285	 H	1	UNK0	0.000	
2	 H01	-13.075	203.459	116.624	 H	1	UNK0	0.000	
3	 H06	-17.580	202.134	120.730	 H	1	UNK0	0.000	
4	 H07	-18.392	199.775	120.470	 H	1	UNK0	0.000	
5	 H09	-15.805	199.222	117.044	 H	1	UNK0	0.000	
6	 H08	-17.514	198.344	118.638	 H	1	UNK0	0.000	
7	 H03	-15.507	203.890	114.780	 H	1	UNK0	0.000	
8	 H10	-16.825	203.779	113.422	 H	1	UNK0	0.000	
9	 H05	-14.333	208.501	116.395	 H	1	UNK0	0.000	
10	 H11	-18.233	206.658	112.048	 H	1	UNK0	0.000	
11	 H02	-13.046	207.100	118.348	 H	1	UNK0	0.000	
12	 H12	-15.593	207.384	111.821	 H	1	UNK0	0.000	
13	  C1	-13.799	204.079	117.153	C.3	1	UNK0	0.000	
14	  C2	-13.142	204.975	118.203	C.2	1	UNK0	0.000	
15	  O1	-12.479	204.609	119.159	O.2	1	UNK0	0.000	
16	  N1	-13.391	206.297	117.842	N.pl3	1	UNK0	0.000	
17	  C3	-14.173	206.371	116.701	C.2	1	UNK0	0.000	
18	  C4	-14.488	205.083	116.266	C.2	1	UNK0	0.000	
19	  C5	-15.238	204.890	115.121	C.2	1	UNK0	0.000	
20	  C6	-15.639	206.029	114.420	C.2	1	UNK0	0.000	
21	  C7	-15.323	207.325	114.857	C.2	1	UNK0	0.000	
22	  C8	-14.580	207.505	116.028	C.2	1	UNK0	0.000	
23	  C9	-15.749	201.154	117.996	C.2	1	UNK0	0.000	
24	 C10	-16.263	201.939	119.028	C.2	1	UNK0	0.000	
25	 C11	-17.204	201.492	119.934	C.2	1	UNK0	0.000	
26	 C12	-17.650	200.177	119.780	C.2	1	UNK0	0.000	
27	 C13	-17.150	199.366	118.743	C.2	1	UNK0	0.000	
28	 C14	-16.192	199.854	117.844	C.2	1	UNK0	0.000	
29	 C15	-15.614	203.232	118.871	C.2	1	UNK0	0.000	
30	  O2	-15.796	204.259	119.476	O.2	1	UNK0	0.000	
31	 C16	-14.680	203.013	117.683	C.2	1	UNK0	0.000	
32	  N2	-14.800	201.809	117.185	N.2	1	UNK0	0.000	
33	  S1	-16.495	205.821	112.938	S.3	1	UNK0	0.000	
34	  O3	-16.715	204.270	112.605	O.3	1	UNK0	0.000	
35	  O4	-17.944	206.503	112.950	O.3	1	UNK0	0.000	
36	  O5	-15.676	206.434	111.709	O.3	1	UNK0	0.000	
@<TRIPOS>BOND
1 2 13 1
2 13 14 1
3 13 18 1
4 13 31 1
5 14 15 2
6 14 16 1
7 11 16 1
8 16 17 1
9 17 18 1
10 17 22 2
11 18 19 2
12 7 19 1
13 19 20 1
14 20 21 2
15 20 33 1
16 1 21 1
17 21 22 1
18 9 22 1
19 23 24 1
20 23 28 2
21 23 32 1
22 24 25 2
23 24 29 1
24 3 25 1
25 25 26 1
26 4 26 1
27 26 27 2
28 6 27 1
29 27 28 1
30 5 28 1
31 29 30 2
32 29 31 1
33 31 32 2
34 33 34 1
35 33 35 1
36 33 36 1
37 8 34 1
38 10 35 1
39 12 36 1
@<TRIPOS>SUBSTRUCTURE
1	UNK0	1	GROUP	1 ****	UNK
