# created with PyMOL 2.5.0
@<TRIPOS>MOLECULE
data/CDK2/cocry_dataset/1e9h_INR_LIG.pdb
24 27 1                 
SMALL
USER_CHARGES
@<TRIPOS>ATOM
1	  C1	-13.799	204.079	117.153	C.3	1	UNK0	0.000	
2	  C2	-13.142	204.975	118.203	C.2	1	UNK0	0.000	
3	  O1	-12.479	204.609	119.159	O.2	1	UNK0	0.000	
4	  N1	-13.391	206.297	117.842	N.pl3	1	UNK0	0.000	
5	  C3	-14.173	206.371	116.701	C.2	1	UNK0	0.000	
6	  C4	-14.488	205.083	116.266	C.2	1	UNK0	0.000	
7	  C5	-15.238	204.890	115.121	C.2	1	UNK0	0.000	
8	  C6	-15.639	206.029	114.420	C.2	1	UNK0	0.000	
9	  C7	-15.323	207.325	114.857	C.2	1	UNK0	0.000	
10	  C8	-14.580	207.505	116.028	C.2	1	UNK0	0.000	
11	  C9	-15.749	201.154	117.996	C.2	1	UNK0	0.000	
12	 C10	-16.263	201.939	119.028	C.2	1	UNK0	0.000	
13	 C11	-17.204	201.492	119.934	C.2	1	UNK0	0.000	
14	 C12	-17.650	200.177	119.780	C.2	1	UNK0	0.000	
15	 C13	-17.150	199.366	118.743	C.2	1	UNK0	0.000	
16	 C14	-16.192	199.854	117.844	C.2	1	UNK0	0.000	
17	 C15	-15.614	203.232	118.871	C.2	1	UNK0	0.000	
18	  O2	-15.796	204.259	119.476	O.2	1	UNK0	0.000	
19	 C16	-14.680	203.013	117.683	C.2	1	UNK0	0.000	
20	  N2	-14.800	201.809	117.185	N.2	1	UNK0	0.000	
21	  S1	-16.495	205.821	112.938	S.3	1	UNK0	0.000	
22	  O3	-16.715	204.270	112.605	O.3	1	UNK0	0.000	
23	  O4	-17.944	206.503	112.950	O.3	1	UNK0	0.000	
24	  O5	-15.676	206.434	111.709	O.3	1	UNK0	0.000	
@<TRIPOS>BOND
1 1 2 1
2 1 6 1
3 1 19 1
4 2 3 2
5 2 4 1
6 4 5 1
7 5 6 1
8 5 10 2
9 6 7 2
10 7 8 1
11 8 9 2
12 8 21 1
13 9 10 1
14 11 12 1
15 11 16 2
16 11 20 1
17 12 13 2
18 12 17 1
19 13 14 1
20 14 15 2
21 15 16 1
22 17 18 2
23 17 19 1
24 19 20 2
25 21 22 1
26 21 23 1
27 21 24 1
@<TRIPOS>SUBSTRUCTURE
1	UNK0	1	GROUP	1 ****	UNK
