# created with PyMOL 2.5.0
@<TRIPOS>MOLECULE
data/CDK2/cocry_dataset/1e9h_INR_LIG.pdb
36 39 1                 
SMALL
USER_CHARGES
@<TRIPOS>ATOM
1	 H04	-7.553	208.388	115.437	 H	1	UNK0	0.000	
2	 H01	-11.251	203.980	114.250	 H	1	UNK0	0.000	
3	 H06	-14.620	205.776	110.309	 H	1	UNK0	0.000	
4	 H07	-17.047	206.339	110.597	 H	1	UNK0	0.000	
5	 H09	-16.637	206.079	114.898	 H	1	UNK0	0.000	
6	 H08	-18.039	206.478	112.872	 H	1	UNK0	0.000	
7	 H03	-10.323	206.480	112.707	 H	1	UNK0	0.000	
8	 H10	-8.462	207.698	110.627	 H	1	UNK0	0.000	
9	 H05	-8.600	207.183	117.374	 H	1	UNK0	0.000	
10	 H11	-9.080	209.517	111.220	 H	1	UNK0	0.000	
11	 H02	-10.505	205.328	117.972	 H	1	UNK0	0.000	
12	 H12	-6.279	208.128	113.702	 H	1	UNK0	0.000	
13	  C1	-11.525	204.860	114.831	C.3	1	UNK0	0.000	
14	  C2	-11.626	204.562	116.327	C.2	1	UNK0	0.000	
15	  O1	-12.368	203.753	116.858	O.2	1	UNK0	0.000	
16	  N1	-10.675	205.347	116.977	N.pl3	1	UNK0	0.000	
17	  C3	-9.993	206.156	116.084	C.2	1	UNK0	0.000	
18	  C4	-10.482	205.948	114.794	C.2	1	UNK0	0.000	
19	  C5	-9.938	206.620	113.717	C.2	1	UNK0	0.000	
20	  C6	-8.875	207.488	113.976	C.2	1	UNK0	0.000	
21	  C7	-8.382	207.700	115.274	C.2	1	UNK0	0.000	
22	  C8	-8.956	207.027	116.356	C.2	1	UNK0	0.000	
23	  C9	-14.863	205.705	113.733	C.2	1	UNK0	0.000	
24	 C10	-14.333	205.625	112.446	C.2	1	UNK0	0.000	
25	 C11	-15.070	205.844	111.299	C.2	1	UNK0	0.000	
26	 C12	-16.421	206.156	111.470	C.2	1	UNK0	0.000	
27	 C13	-16.982	206.237	112.760	C.2	1	UNK0	0.000	
28	 C14	-16.200	206.012	113.901	C.2	1	UNK0	0.000	
29	 C15	-12.939	205.256	112.640	C.2	1	UNK0	0.000	
30	  O2	-12.096	204.991	111.819	O.2	1	UNK0	0.000	
31	 C16	-12.799	205.202	114.159	C.2	1	UNK0	0.000	
32	  N2	-13.936	205.442	114.762	N.2	1	UNK0	0.000	
33	  S1	-8.112	208.271	112.643	S.3	1	UNK0	0.000	
34	  O3	-8.011	207.298	111.374	O.3	1	UNK0	0.000	
35	  O4	-8.891	209.585	112.159	O.3	1	UNK0	0.000	
36	  O5	-6.614	208.697	113.005	O.3	1	UNK0	0.000	
@<TRIPOS>BOND
1 2 13 1
2 13 14 1
3 13 18 1
4 13 31 1
5 14 15 2
6 14 16 1
7 11 16 1
8 16 17 1
9 17 18 1
10 17 22 2
11 18 19 2
12 7 19 1
13 19 20 1
14 20 21 2
15 20 33 1
16 1 21 1
17 21 22 1
18 9 22 1
19 23 24 1
20 23 28 2
21 23 32 1
22 24 25 2
23 24 29 1
24 3 25 1
25 25 26 1
26 4 26 1
27 26 27 2
28 6 27 1
29 27 28 1
30 5 28 1
31 29 30 2
32 29 31 1
33 31 32 2
34 33 34 1
35 33 35 1
36 33 36 1
37 8 34 1
38 10 35 1
39 12 36 1
@<TRIPOS>SUBSTRUCTURE
1	UNK0	1	GROUP	1 ****	UNK
