# created with PyMOL 2.5.0
@<TRIPOS>MOLECULE
data/CDK2/cocry_dataset/1fin_ATP_LIG.pdb
31 33 1                 
SMALL
USER_CHARGES
@<TRIPOS>ATOM
1	  C1	-11.597	205.473	119.046	C.3	1	UNK0	0.000	
2	  O1	-10.716	205.315	117.909	O.3	1	UNK0	0.000	
3	  C2	-10.412	206.611	117.365	C.3	1	UNK0	0.000	
4	  C3	-11.458	207.592	117.886	C.3	1	UNK0	0.000	
5	  C4	-11.859	206.974	119.217	C.3	1	UNK0	0.000	
6	  O2	-11.051	207.551	120.257	O.3	1	UNK0	0.000	
7	  O3	-10.927	208.910	118.036	O.3	1	UNK0	0.000	
8	  N1	-10.355	206.523	115.920	N.pl3	1	UNK0	0.000	
9	  C5	-10.745	205.446	115.168	C.2	1	UNK0	0.000	
10	  N2	-10.514	205.630	113.884	N.2	1	UNK0	0.000	
11	  C6	-9.918	206.873	113.811	C.2	1	UNK0	0.000	
12	  C7	-9.406	207.618	112.735	C.2	1	UNK0	0.000	
13	  N3	-9.426	207.165	111.422	N.pl3	1	UNK0	0.000	
14	  N4	-8.874	208.836	112.987	N.2	1	UNK0	0.000	
15	  C8	-8.838	209.266	114.266	C.2	1	UNK0	0.000	
16	  N5	-9.294	208.648	115.373	N.2	1	UNK0	0.000	
17	  C9	-9.826	207.451	115.067	C.2	1	UNK0	0.000	
18	 C10	-12.886	204.663	118.842	C.3	1	UNK0	0.000	
19	  O4	-12.918	204.129	117.522	O.3	1	UNK0	0.000	
20	  P1	-14.340	204.039	116.777	P.3	1	UNK0	0.000	
21	  O5	-14.949	202.671	116.718	O.co2	1	UNK0	0.000	
22	  O6	-15.254	205.015	117.662	O.co2	1	UNK0	0.000	
23	  O7	-14.166	204.826	115.400	O.3	1	UNK0	0.000	
24	  P2	-15.424	205.768	114.677	P.3	1	UNK0	0.000	
25	  O8	-15.190	206.880	115.700	O.co2	1	UNK0	0.000	
26	  O9	-16.588	204.820	115.325	O.co2	1	UNK0	0.000	
27	 O10	-16.683	206.709	113.953	O.3	1	UNK0	0.000	
28	  P3	-17.252	205.738	112.794	P.3	1	UNK0	0.000	
29	 O11	-17.521	206.366	111.470	O.co2	1	UNK0	0.000	
30	 O12	-16.319	204.450	112.756	O.co2	1	UNK0	0.000	
31	 O13	-18.591	205.087	113.376	O.co2	1	UNK0	0.000	
@<TRIPOS>BOND
1 1 2 1
2 1 5 1
3 1 18 1
4 2 3 1
5 3 4 1
6 3 8 1
7 4 5 1
8 4 7 1
9 5 6 1
10 8 9 1
11 8 17 1
12 9 10 2
13 10 11 1
14 11 12 1
15 11 17 2
16 12 13 1
17 12 14 2
18 14 15 1
19 15 16 2
20 16 17 1
21 18 19 1
22 19 20 1
23 20 21 2
24 20 22 1
25 20 23 1
26 23 24 1
27 24 25 2
28 24 26 1
29 24 27 1
30 27 28 1
31 28 29 2
32 28 30 1
33 28 31 1
@<TRIPOS>SUBSTRUCTURE
1	UNK0	1	GROUP	1 ****	UNK
