# created with PyMOL 2.5.0
@<TRIPOS>MOLECULE
data/CDK2/cocry_dataset/1fin_ATP_LIG.pdb
47 49 1                 
SMALL
USER_CHARGES
@<TRIPOS>ATOM
1	 H06	-9.123	207.976	115.507	 H	1	UNK0	0.000	
2	 H03	-11.289	207.259	115.305	 H	1	UNK0	0.000	
3	 H07	-13.268	204.193	113.949	 H	1	UNK0	0.000	
4	 H08	-13.336	207.001	108.386	 H	1	UNK0	0.000	
5	 H13	-15.634	205.157	118.154	 H	1	UNK0	0.000	
6	 H09	-14.217	205.956	109.477	 H	1	UNK0	0.000	
7	 H14	-17.062	205.422	116.278	 H	1	UNK0	0.000	
8	 H11	-12.834	205.724	117.328	 H	1	UNK0	0.000	
9	 H02	-9.753	204.964	114.131	 H	1	UNK0	0.000	
10	 H12	-12.139	204.743	118.643	 H	1	UNK0	0.000	
11	 H01	-10.431	203.928	117.316	 H	1	UNK0	0.000	
12	 H15	-15.744	203.842	112.394	 H	1	UNK0	0.000	
13	 H10	-9.467	208.119	110.501	 H	1	UNK0	0.000	
14	 H16	-18.599	205.205	113.855	 H	1	UNK0	0.000	
15	 H05	-8.496	205.210	116.295	 H	1	UNK0	0.000	
16	 H04	-10.592	206.663	117.555	 H	1	UNK0	0.000	
17	  C1	-11.026	204.678	116.794	C.3	1	UNK0	0.000	
18	  O1	-11.279	204.292	115.423	O.3	1	UNK0	0.000	
19	  C2	-10.711	205.279	114.544	C.3	1	UNK0	0.000	
20	  C3	-10.468	206.544	115.360	C.3	1	UNK0	0.000	
21	  C4	-10.248	205.998	116.763	C.3	1	UNK0	0.000	
22	  O2	-8.839	205.804	116.967	O.3	1	UNK0	0.000	
23	  O3	-9.342	207.282	114.881	O.3	1	UNK0	0.000	
24	  N1	-11.589	205.469	113.407	N.pl3	1	UNK0	0.000	
25	  C5	-12.804	204.860	113.222	C.2	1	UNK0	0.000	
26	  N2	-13.343	205.177	112.063	N.2	1	UNK0	0.000	
27	  C6	-12.417	206.005	111.460	C.2	1	UNK0	0.000	
28	  C7	-12.386	206.640	110.208	C.2	1	UNK0	0.000	
29	  N3	-13.406	206.522	109.272	N.pl3	1	UNK0	0.000	
30	  N4	-11.317	207.408	109.899	N.2	1	UNK0	0.000	
31	  C8	-10.318	207.508	110.801	C.2	1	UNK0	0.000	
32	  N5	-10.234	206.950	112.025	N.2	1	UNK0	0.000	
33	  C9	-11.326	206.211	112.289	C.2	1	UNK0	0.000	
34	 C10	-12.345	204.781	117.573	C.3	1	UNK0	0.000	
35	  O4	-13.204	203.702	117.218	O.3	1	UNK0	0.000	
36	  P1	-14.655	204.054	116.622	P.3	1	UNK0	0.000	
37	  O5	-15.255	203.009	115.730	O.co2	1	UNK0	0.000	
38	  O6	-15.539	204.224	117.949	O.3	1	UNK0	0.000	
39	  O7	-14.546	205.538	116.045	O.3	1	UNK0	0.000	
40	  P2	-15.629	206.180	114.859	P.3	1	UNK0	0.000	
41	  O8	-15.765	207.469	115.672	O.co2	1	UNK0	0.000	
42	  O9	-16.849	205.217	115.365	O.3	1	UNK0	0.000	
43	 O10	-16.712	206.823	113.673	O.3	1	UNK0	0.000	
44	  P3	-16.904	205.593	112.642	P.3	1	UNK0	0.000	
45	 O11	-16.805	205.919	111.191	O.co2	1	UNK0	0.000	
46	 O12	-15.962	204.411	113.136	O.3	1	UNK0	0.000	
47	 O13	-18.333	204.958	112.967	O.3	1	UNK0	0.000	
@<TRIPOS>BOND
1 11 17 1
2 17 18 1
3 17 21 1
4 17 34 1
5 18 19 1
6 9 19 1
7 19 20 1
8 19 24 1
9 2 20 1
10 20 21 1
11 20 23 1
12 16 21 1
13 21 22 1
14 15 22 1
15 1 23 1
16 24 25 1
17 24 33 1
18 3 25 1
19 25 26 2
20 26 27 1
21 27 28 1
22 27 33 2
23 28 29 1
24 28 30 2
25 4 29 1
26 6 29 1
27 30 31 1
28 13 31 1
29 31 32 2
30 32 33 1
31 8 34 1
32 10 34 1
33 34 35 1
34 35 36 1
35 36 37 2
36 36 38 1
37 36 39 1
38 5 38 1
39 39 40 1
40 40 41 2
41 40 42 1
42 7 42 1
43 40 43 1
44 43 44 1
45 44 45 2
46 44 46 1
47 44 47 1
48 12 46 1
49 14 47 1
@<TRIPOS>SUBSTRUCTURE
1	UNK0	1	GROUP	1 ****	UNK
