# created with PyMOL 2.5.0
@<TRIPOS>MOLECULE
data/CDK2/cocry_dataset/1fin_ATP_LIG.pdb
47 49 1                 
SMALL
USER_CHARGES
@<TRIPOS>ATOM
1	 H06	-10.794	209.098	118.968	 H	1	UNK0	0.000	
2	 H03	-12.301	207.727	117.209	 H	1	UNK0	0.000	
3	 H07	-11.194	204.543	115.582	 H	1	UNK0	0.000	
4	 H08	-9.046	207.741	110.684	 H	1	UNK0	0.000	
5	 H13	-15.381	205.845	117.197	 H	1	UNK0	0.000	
6	 H09	-9.819	206.260	111.205	 H	1	UNK0	0.000	
7	 H14	-16.782	205.116	116.217	 H	1	UNK0	0.000	
8	 H11	-13.747	205.316	118.986	 H	1	UNK0	0.000	
9	 H02	-9.435	206.975	117.680	 H	1	UNK0	0.000	
10	 H12	-12.918	203.847	119.564	 H	1	UNK0	0.000	
11	 H01	-11.144	205.086	119.958	 H	1	UNK0	0.000	
12	 H15	-16.133	204.216	111.844	 H	1	UNK0	0.000	
13	 H10	-8.380	210.243	114.424	 H	1	UNK0	0.000	
14	 H16	-18.826	205.521	114.199	 H	1	UNK0	0.000	
15	 H05	-10.799	206.869	120.883	 H	1	UNK0	0.000	
16	 H04	-12.899	207.152	119.492	 H	1	UNK0	0.000	
17	  C1	-11.597	205.473	119.046	C.3	1	UNK0	0.000	
18	  O1	-10.716	205.315	117.909	O.3	1	UNK0	0.000	
19	  C2	-10.412	206.611	117.365	C.3	1	UNK0	0.000	
20	  C3	-11.458	207.592	117.886	C.3	1	UNK0	0.000	
21	  C4	-11.859	206.974	119.217	C.3	1	UNK0	0.000	
22	  O2	-11.051	207.551	120.257	O.3	1	UNK0	0.000	
23	  O3	-10.927	208.910	118.036	O.3	1	UNK0	0.000	
24	  N1	-10.355	206.523	115.920	N.pl3	1	UNK0	0.000	
25	  C5	-10.745	205.446	115.168	C.2	1	UNK0	0.000	
26	  N2	-10.514	205.630	113.884	N.2	1	UNK0	0.000	
27	  C6	-9.918	206.873	113.811	C.2	1	UNK0	0.000	
28	  C7	-9.406	207.618	112.735	C.2	1	UNK0	0.000	
29	  N3	-9.426	207.165	111.422	N.pl3	1	UNK0	0.000	
30	  N4	-8.874	208.836	112.987	N.2	1	UNK0	0.000	
31	  C8	-8.838	209.266	114.266	C.2	1	UNK0	0.000	
32	  N5	-9.294	208.648	115.373	N.2	1	UNK0	0.000	
33	  C9	-9.826	207.451	115.067	C.2	1	UNK0	0.000	
34	 C10	-12.886	204.663	118.842	C.3	1	UNK0	0.000	
35	  O4	-12.918	204.129	117.522	O.3	1	UNK0	0.000	
36	  P1	-14.340	204.039	116.777	P.3	1	UNK0	0.000	
37	  O5	-14.949	202.671	116.718	O.co2	1	UNK0	0.000	
38	  O6	-15.254	205.015	117.662	O.3	1	UNK0	0.000	
39	  O7	-14.166	204.826	115.400	O.3	1	UNK0	0.000	
40	  P2	-15.424	205.768	114.677	P.3	1	UNK0	0.000	
41	  O8	-15.190	206.880	115.700	O.co2	1	UNK0	0.000	
42	  O9	-16.588	204.820	115.325	O.3	1	UNK0	0.000	
43	 O10	-16.683	206.709	113.953	O.3	1	UNK0	0.000	
44	  P3	-17.252	205.738	112.794	P.3	1	UNK0	0.000	
45	 O11	-17.521	206.366	111.470	O.co2	1	UNK0	0.000	
46	 O12	-16.319	204.450	112.756	O.3	1	UNK0	0.000	
47	 O13	-18.591	205.087	113.376	O.3	1	UNK0	0.000	
@<TRIPOS>BOND
1 11 17 1
2 17 18 1
3 17 21 1
4 17 34 1
5 18 19 1
6 9 19 1
7 19 20 1
8 19 24 1
9 2 20 1
10 20 21 1
11 20 23 1
12 16 21 1
13 21 22 1
14 15 22 1
15 1 23 1
16 24 25 1
17 24 33 1
18 3 25 1
19 25 26 2
20 26 27 1
21 27 28 1
22 27 33 2
23 28 29 1
24 28 30 2
25 4 29 1
26 6 29 1
27 30 31 1
28 13 31 1
29 31 32 2
30 32 33 1
31 8 34 1
32 10 34 1
33 34 35 1
34 35 36 1
35 36 37 2
36 36 38 1
37 36 39 1
38 5 38 1
39 39 40 1
40 40 41 2
41 40 42 1
42 7 42 1
43 40 43 1
44 43 44 1
45 44 45 2
46 44 46 1
47 44 47 1
48 12 46 1
49 14 47 1
@<TRIPOS>SUBSTRUCTURE
1	UNK0	1	GROUP	1 ****	UNK
