# created with PyMOL 2.5.0
@<TRIPOS>MOLECULE
data/CDK2/cocry_dataset/1fin_ATP_LIG.pdb
31 33 1                 
SMALL
USER_CHARGES
@<TRIPOS>ATOM
1	  C1	-8.467	207.637	114.116	C.3	1	UNK0	0.000	
2	  O1	-9.235	206.420	113.964	O.3	1	UNK0	0.000	
3	  C2	-10.037	206.514	112.774	C.3	1	UNK0	0.000	
4	  C3	-10.119	207.987	112.383	C.3	1	UNK0	0.000	
5	  C4	-8.819	208.550	112.936	C.3	1	UNK0	0.000	
6	  O2	-7.821	208.511	111.901	O.3	1	UNK0	0.000	
7	  O3	-10.230	208.160	110.969	O.3	1	UNK0	0.000	
8	  N1	-11.325	205.895	113.013	N.pl3	1	UNK0	0.000	
9	  C5	-11.663	205.149	114.113	C.2	1	UNK0	0.000	
10	  N2	-12.882	204.659	114.021	N.2	1	UNK0	0.000	
11	  C6	-13.338	205.084	112.790	C.2	1	UNK0	0.000	
12	  C7	-14.540	204.865	112.096	C.2	1	UNK0	0.000	
13	  N3	-15.580	204.097	112.605	N.pl3	1	UNK0	0.000	
14	  N4	-14.697	205.432	110.878	N.2	1	UNK0	0.000	
15	  C8	-13.678	206.162	110.376	C.2	1	UNK0	0.000	
16	  N5	-12.487	206.441	110.942	N.2	1	UNK0	0.000	
17	  C9	-12.389	205.868	112.155	C.2	1	UNK0	0.000	
18	 C10	-8.753	208.285	115.478	C.3	1	UNK0	0.000	
19	  O4	-10.130	208.641	115.564	O.3	1	UNK0	0.000	
20	  P1	-11.043	207.873	116.643	P.3	1	UNK0	0.000	
21	  O5	-10.479	206.585	117.162	O.co2	1	UNK0	0.000	
22	  O6	-11.152	208.948	117.828	O.co2	1	UNK0	0.000	
23	  O7	-12.514	207.835	116.026	O.3	1	UNK0	0.000	
24	  P2	-13.832	206.989	116.759	P.3	1	UNK0	0.000	
25	  O8	-14.695	207.246	115.523	O.co2	1	UNK0	0.000	
26	  O9	-14.145	208.232	117.774	O.co2	1	UNK0	0.000	
27	 O10	-15.150	206.142	117.493	O.3	1	UNK0	0.000	
28	  P3	-15.015	204.649	116.887	P.3	1	UNK0	0.000	
29	 O11	-15.658	203.553	117.665	O.co2	1	UNK0	0.000	
30	 O12	-15.428	204.724	115.352	O.co2	1	UNK0	0.000	
31	 O13	-13.449	204.371	116.735	O.co2	1	UNK0	0.000	
@<TRIPOS>BOND
1 1 2 1
2 1 5 1
3 1 18 1
4 2 3 1
5 3 4 1
6 3 8 1
7 4 5 1
8 4 7 1
9 5 6 1
10 8 9 1
11 8 17 1
12 9 10 2
13 10 11 1
14 11 12 1
15 11 17 2
16 12 13 1
17 12 14 2
18 14 15 1
19 15 16 2
20 16 17 1
21 18 19 1
22 19 20 1
23 20 21 2
24 20 22 1
25 20 23 1
26 23 24 1
27 24 25 2
28 24 26 1
29 24 27 1
30 27 28 1
31 28 29 2
32 28 30 1
33 28 31 1
@<TRIPOS>SUBSTRUCTURE
1	UNK0	1	GROUP	1 ****	UNK
