# created with PyMOL 2.5.0
@<TRIPOS>MOLECULE
data/CDK2/cocry_dataset/1fin_ATP_LIG.pdb
31 33 1                 
SMALL
USER_CHARGES
@<TRIPOS>ATOM
1	  C1	-11.026	204.678	116.794	C.3	1	UNK0	0.000	
2	  O1	-11.279	204.292	115.423	O.3	1	UNK0	0.000	
3	  C2	-10.711	205.279	114.544	C.3	1	UNK0	0.000	
4	  C3	-10.468	206.544	115.360	C.3	1	UNK0	0.000	
5	  C4	-10.248	205.998	116.763	C.3	1	UNK0	0.000	
6	  O2	-8.839	205.804	116.967	O.3	1	UNK0	0.000	
7	  O3	-9.342	207.282	114.881	O.3	1	UNK0	0.000	
8	  N1	-11.589	205.469	113.407	N.pl3	1	UNK0	0.000	
9	  C5	-12.804	204.860	113.222	C.2	1	UNK0	0.000	
10	  N2	-13.343	205.177	112.063	N.2	1	UNK0	0.000	
11	  C6	-12.417	206.005	111.460	C.2	1	UNK0	0.000	
12	  C7	-12.386	206.640	110.208	C.2	1	UNK0	0.000	
13	  N3	-13.406	206.522	109.272	N.pl3	1	UNK0	0.000	
14	  N4	-11.317	207.408	109.899	N.2	1	UNK0	0.000	
15	  C8	-10.318	207.508	110.801	C.2	1	UNK0	0.000	
16	  N5	-10.234	206.950	112.025	N.2	1	UNK0	0.000	
17	  C9	-11.326	206.211	112.289	C.2	1	UNK0	0.000	
18	 C10	-12.345	204.781	117.573	C.3	1	UNK0	0.000	
19	  O4	-13.204	203.702	117.218	O.3	1	UNK0	0.000	
20	  P1	-14.655	204.054	116.622	P.3	1	UNK0	0.000	
21	  O5	-15.255	203.009	115.730	O.co2	1	UNK0	0.000	
22	  O6	-15.539	204.224	117.949	O.co2	1	UNK0	0.000	
23	  O7	-14.546	205.538	116.045	O.3	1	UNK0	0.000	
24	  P2	-15.629	206.180	114.859	P.3	1	UNK0	0.000	
25	  O8	-15.765	207.469	115.672	O.co2	1	UNK0	0.000	
26	  O9	-16.849	205.217	115.365	O.co2	1	UNK0	0.000	
27	 O10	-16.712	206.823	113.673	O.3	1	UNK0	0.000	
28	  P3	-16.904	205.593	112.642	P.3	1	UNK0	0.000	
29	 O11	-16.805	205.919	111.191	O.co2	1	UNK0	0.000	
30	 O12	-15.962	204.411	113.136	O.co2	1	UNK0	0.000	
31	 O13	-18.333	204.958	112.967	O.co2	1	UNK0	0.000	
@<TRIPOS>BOND
1 1 2 1
2 1 5 1
3 1 18 1
4 2 3 1
5 3 4 1
6 3 8 1
7 4 5 1
8 4 7 1
9 5 6 1
10 8 9 1
11 8 17 1
12 9 10 2
13 10 11 1
14 11 12 1
15 11 17 2
16 12 13 1
17 12 14 2
18 14 15 1
19 15 16 2
20 16 17 1
21 18 19 1
22 19 20 1
23 20 21 2
24 20 22 1
25 20 23 1
26 23 24 1
27 24 25 2
28 24 26 1
29 24 27 1
30 27 28 1
31 28 29 2
32 28 30 1
33 28 31 1
@<TRIPOS>SUBSTRUCTURE
1	UNK0	1	GROUP	1 ****	UNK
