# created with PyMOL 2.5.0
@<TRIPOS>MOLECULE
ZINC14969940
81 85 1                 
SMALL
USER_CHARGES
@<TRIPOS>ATOM
1	 H15	-14.790	207.410	111.170	 H	1	UNK0	0.000	
2	 H17	-13.920	204.140	112.900	 H	1	UNK0	0.000	
3	 H16	-15.680	204.380	113.090	 H	1	UNK0	0.000	
4	 H22	-6.260	209.170	113.220	 H	1	UNK0	0.000	
5	 H21	-5.560	206.640	111.910	 H	1	UNK0	0.000	
6	 H20	-7.660	205.580	112.260	 H	1	UNK0	0.000	
7	 H18	-14.580	204.670	114.470	 H	1	UNK0	0.000	
8	 H31	-9.230	208.580	111.160	 H	1	UNK0	0.000	
9	 H30	-8.250	209.480	112.340	 H	1	UNK0	0.000	
10	 H25	-6.690	206.650	115.660	 H	1	UNK0	0.000	
11	 H28	-6.660	209.120	111.180	 H	1	UNK0	0.000	
12	 H27	-7.200	205.620	114.300	 H	1	UNK0	0.000	
13	 H38	-19.470	206.460	113.760	 H	1	UNK0	0.000	
14	 H26	-8.400	206.250	115.450	 H	1	UNK0	0.000	
15	 H23	-8.400	209.750	114.260	 H	1	UNK0	0.000	
16	 H19	-8.160	206.560	110.920	 H	1	UNK0	0.000	
17	 H47	-4.950	206.180	112.740	 H	1	UNK0	0.000	
18	 H34	-19.380	207.430	110.270	 H	1	UNK0	0.000	
19	 H37	-18.850	204.820	113.500	 H	1	UNK0	0.000	
20	 H36	-20.370	205.320	112.740	 H	1	UNK0	0.000	
21	 H35	-18.700	205.400	111.010	 H	1	UNK0	0.000	
22	 H46	-3.650	207.200	112.850	 H	1	UNK0	0.000	
23	 H41	-4.840	209.750	114.330	 H	1	UNK0	0.000	
24	 H40	-3.360	208.820	113.980	 H	1	UNK0	0.000	
25	 H39	-5.490	207.130	115.090	 H	1	UNK0	0.000	
26	 H42	-4.060	208.800	115.610	 H	1	UNK0	0.000	
27	 H45	-3.410	204.820	113.700	 H	1	UNK0	0.000	
28	 H44	-4.300	205.470	115.100	 H	1	UNK0	0.000	
29	 H43	-2.730	206.170	114.630	 H	1	UNK0	0.000	
30	 H29	-9.950	209.120	112.700	 H	1	UNK0	0.000	
31	 H33	-18.480	208.270	111.560	 H	1	UNK0	0.000	
32	 H24	-7.650	209.120	115.710	 H	1	UNK0	0.000	
33	 H32	-20.130	207.670	111.860	 H	1	UNK0	0.000	
34	 H01	-15.310	208.150	113.600	 H	1	UNK0	0.000	
35	 H02	-15.750	205.740	115.420	 H	1	UNK0	0.000	
36	 H03	-15.880	207.470	115.840	 H	1	UNK0	0.000	
37	 H04	-13.640	206.790	116.650	 H	1	UNK0	0.000	
38	 H05	-11.110	205.740	115.230	 H	1	UNK0	0.000	
39	 H06	-11.500	207.130	116.290	 H	1	UNK0	0.000	
40	 H07	-11.120	208.410	113.860	 H	1	UNK0	0.000	
41	 H08	-9.570	205.760	113.870	 H	1	UNK0	0.000	
42	 H09	-10.300	205.780	111.580	 H	1	UNK0	0.000	
43	 H10	-11.090	207.420	111.830	 H	1	UNK0	0.000	
44	 H11	-11.870	204.980	113.370	 H	1	UNK0	0.000	
45	 H12	-12.530	205.300	111.730	 H	1	UNK0	0.000	
46	 H13	-13.010	207.690	112.810	 H	1	UNK0	0.000	
47	 H14	-14.200	205.770	110.860	 H	1	UNK0	0.000	
48	  C1	-17.160	206.320	112.170	C.2	1	UNK0	0.000	
49	  N1	-16.880	206.840	113.300	N.2	1	UNK0	0.000	
50	  C2	-15.520	207.090	113.750	C.3	1	UNK0	0.000	
51	  C3	-15.350	206.740	115.230	C.3	1	UNK0	0.000	
52	  C4	-13.890	206.760	115.590	C.2	1	UNK0	0.000	
53	  C5	-12.900	206.740	114.750	C.2	1	UNK0	0.000	
54	  C6	-11.500	206.760	115.260	C.3	1	UNK0	0.000	
55	  C7	-10.590	207.640	114.410	C.3	1	UNK0	0.000	
56	  C8	-9.870	206.700	113.410	C.3	1	UNK0	0.000	
57	  C9	-10.820	206.450	112.270	C.3	1	UNK0	0.000	
58	 C10	-12.110	205.750	112.630	C.3	1	UNK0	0.000	
59	 C11	-13.130	206.690	113.240	C.3	1	UNK0	0.000	
60	 C12	-14.550	206.210	112.950	C.3	1	UNK0	0.000	
61	 C13	-14.880	206.360	111.470	C.3	1	UNK0	0.000	
62	  O1	-16.230	205.920	111.280	O.3	1	UNK0	0.000	
63	 C14	-14.690	204.750	113.390	C.3	1	UNK0	0.000	
64	 C15	-8.630	207.430	112.890	C.3	1	UNK0	0.000	
65	 C16	-7.750	206.620	111.930	C.3	1	UNK0	0.000	
66	 C17	-6.380	207.340	112.000	C.3	1	UNK0	0.000	
67	 C18	-6.350	208.090	113.350	C.3	1	UNK0	0.000	
68	 C19	-7.650	207.720	114.060	C.3	1	UNK0	0.000	
69	 C20	-8.280	208.850	114.860	C.3	1	UNK0	0.000	
70	 C21	-9.610	208.320	115.350	C.2	1	UNK0	0.000	
71	  O2	-9.910	208.440	116.510	O.2	1	UNK0	0.000	
72	 C22	-7.470	206.470	114.930	C.3	1	UNK0	0.000	
73	  O3	-6.270	208.280	110.920	O.3	1	UNK0	0.000	
74	 C23	-9.040	208.750	112.220	C.3	1	UNK0	0.000	
75	 C24	-19.190	207.470	111.340	C.3	1	UNK0	0.000	
76	 C25	-18.610	206.140	111.810	C.3	1	UNK0	0.000	
77	 C26	-19.380	205.650	113.040	C.3	1	UNK0	0.000	
78	 C27	-5.150	207.630	114.180	C.3	1	UNK0	0.000	
79	 C28	-4.290	208.840	114.550	C.3	1	UNK0	0.000	
80	 C29	-3.650	205.720	114.260	C.3	1	UNK0	0.000	
81	  N2	-4.340	206.680	113.380	N.4	1	UNK0	0.000	
@<TRIPOS>BOND
1 48 49 2
2 48 62 1
3 48 76 1
4 49 50 1
5 34 50 1
6 50 51 1
7 50 60 1
8 35 51 1
9 36 51 1
10 51 52 1
11 37 52 1
12 52 53 2
13 53 54 1
14 53 59 1
15 38 54 1
16 39 54 1
17 54 55 1
18 40 55 1
19 55 56 1
20 55 70 1
21 41 56 1
22 56 57 1
23 56 64 1
24 42 57 1
25 43 57 1
26 57 58 1
27 44 58 1
28 45 58 1
29 58 59 1
30 46 59 1
31 59 60 1
32 60 61 1
33 60 63 1
34 1 61 1
35 47 61 1
36 61 62 1
37 2 63 1
38 3 63 1
39 7 63 1
40 64 65 1
41 64 68 1
42 64 74 1
43 6 65 1
44 16 65 1
45 65 66 1
46 5 66 1
47 66 67 1
48 66 73 1
49 4 67 1
50 67 68 1
51 67 78 1
52 68 69 1
53 68 72 1
54 15 69 1
55 32 69 1
56 69 70 1
57 70 71 2
58 10 72 1
59 12 72 1
60 14 72 1
61 11 73 1
62 8 74 1
63 9 74 1
64 30 74 1
65 18 75 1
66 31 75 1
67 33 75 1
68 75 76 1
69 21 76 1
70 76 77 1
71 13 77 1
72 19 77 1
73 20 77 1
74 25 78 1
75 78 79 1
76 78 81 1
77 23 79 1
78 24 79 1
79 26 79 1
80 27 80 1
81 28 80 1
82 29 80 1
83 80 81 1
84 17 81 1
85 22 81 1
@<TRIPOS>SUBSTRUCTURE
1	UNK0	1	GROUP	1 ****	UNK
