@<TRIPOS>MOLECULE
ZINC14969940
 34 38 0 0 0
SMALL
USER_CHARGES

@<TRIPOS>ATOM
      1 C1        -17.1600  206.3200  112.1700 C.2     1  UNK01       0.0000
      2 N1        -16.8800  206.8400  113.3000 N.2     1  UNK01       0.0000
      3 C2        -15.5200  207.0900  113.7500 C.3     1  UNK01       0.0000
      4 C3        -15.3500  206.7400  115.2300 C.3     1  UNK01       0.0000
      5 C4        -13.8900  206.7600  115.5900 C.2     1  UNK01       0.0000
      6 C5        -12.9000  206.7400  114.7500 C.2     1  UNK01       0.0000
      7 C6        -11.5000  206.7600  115.2600 C.3     1  UNK01       0.0000
      8 C7        -10.5900  207.6400  114.4100 C.3     1  UNK01       0.0000
      9 C8         -9.8700  206.7000  113.4100 C.3     1  UNK01       0.0000
     10 C9        -10.8200  206.4500  112.2700 C.3     1  UNK01       0.0000
     11 C10       -12.1100  205.7500  112.6300 C.3     1  UNK01       0.0000
     12 C11       -13.1300  206.6900  113.2400 C.3     1  UNK01       0.0000
     13 C12       -14.5500  206.2100  112.9500 C.3     1  UNK01       0.0000
     14 C13       -14.8800  206.3600  111.4700 C.3     1  UNK01       0.0000
     15 O1        -16.2300  205.9200  111.2800 O.2     1  UNK01       0.0000
     16 C14       -14.6900  204.7500  113.3900 C.3     1  UNK01       0.0000
     17 C15        -8.6300  207.4300  112.8900 C.3     1  UNK01       0.0000
     18 C16        -7.7500  206.6200  111.9300 C.3     1  UNK01       0.0000
     19 C17        -6.3800  207.3400  112.0000 C.3     1  UNK01       0.0000
     20 C18        -6.3500  208.0900  113.3500 C.3     1  UNK01       0.0000
     21 C19        -7.6500  207.7200  114.0600 C.3     1  UNK01       0.0000
     22 C20        -8.2800  208.8500  114.8600 C.3     1  UNK01       0.0000
     23 C21        -9.6100  208.3200  115.3500 C.2     1  UNK01       0.0000
     24 O2         -9.9100  208.4400  116.5100 O.2     1  UNK01       0.0000
     25 C22        -7.4700  206.4700  114.9300 C.3     1  UNK01       0.0000
     26 O3         -6.2700  208.2800  110.9200 O.3     1  UNK01       0.0000
     27 C23        -9.0400  208.7500  112.2200 C.3     1  UNK01       0.0000
     28 C24       -19.1900  207.4700  111.3400 C.3     1  UNK01       0.0000
     29 C25       -18.6100  206.1400  111.8100 C.3     1  UNK01       0.0000
     30 C26       -19.3800  205.6500  113.0400 C.3     1  UNK01       0.0000
     31 C27        -5.1500  207.6300  114.1800 C.3     1  UNK01       0.0000
     32 C28        -4.2900  208.8400  114.5500 C.3     1  UNK01       0.0000
     33 C29        -3.6500  205.7200  114.2600 C.3     1  UNK01       0.0000
     34 N2         -4.3400  206.6800  113.3800 N.4     1  UNK01       0.0000
@<TRIPOS>UNITY_ATOM_ATTR
34 1
charge 1
@<TRIPOS>BOND
     1     1     2    2
     2     1    15    1
     3     1    29    1
     4     2     3    1
     5     3     4    1
     6     3    13    1
     7     4     5    1
     8     5     6    2
     9     6     7    1
    10     6    12    1
    11     7     8    1
    12     8     9    1
    13     8    23    1
    14     9    10    1
    15     9    17    1
    16    10    11    1
    17    11    12    1
    18    12    13    1
    19    13    14    1
    20    13    16    1
    21    14    15    1
    22    17    18    1
    23    17    21    1
    24    17    27    1
    25    18    19    1
    26    19    20    1
    27    19    26    1
    28    20    21    1
    29    20    31    1
    30    21    22    1
    31    21    25    1
    32    22    23    1
    33    23    24    2
    34    28    29    1
    35    29    30    1
    36    31    32    1
    37    31    34    1
    38    33    34    1
