# created with PyMOL 2.5.0
@<TRIPOS>MOLECULE
ZINC14969940
81 85 1                 
SMALL
USER_CHARGES
@<TRIPOS>ATOM
1	 H15	-12.840	208.070	112.140	 H	1	UNK0	0.000	
2	 H17	-13.930	204.980	114.000	 H	1	UNK0	0.000	
3	 H16	-12.980	205.340	115.440	 H	1	UNK0	0.000	
4	 H22	-4.800	209.800	114.640	 H	1	UNK0	0.000	
5	 H21	-4.370	207.000	113.600	 H	1	UNK0	0.000	
6	 H20	-6.570	206.560	113.380	 H	1	UNK0	0.000	
7	 H18	-12.180	204.920	113.920	 H	1	UNK0	0.000	
8	 H31	-7.980	209.730	112.910	 H	1	UNK0	0.000	
9	 H30	-6.440	210.260	113.590	 H	1	UNK0	0.000	
10	 H25	-5.260	207.030	116.970	 H	1	UNK0	0.000	
11	 H28	-4.840	209.530	112.390	 H	1	UNK0	0.000	
12	 H27	-5.720	206.270	115.440	 H	1	UNK0	0.000	
13	 H38	-17.300	204.060	111.750	 H	1	UNK0	0.000	
14	 H26	-6.940	206.660	116.660	 H	1	UNK0	0.000	
15	 H23	-6.720	210.400	116.180	 H	1	UNK0	0.000	
16	 H19	-6.750	207.920	112.260	 H	1	UNK0	0.000	
17	 H47	-2.640	208.410	113.710	 H	1	UNK0	0.000	
18	 H34	-18.760	206.300	111.960	 H	1	UNK0	0.000	
19	 H37	-16.780	204.350	113.420	 H	1	UNK0	0.000	
20	 H36	-15.580	204.180	112.150	 H	1	UNK0	0.000	
21	 H35	-16.580	206.270	111.050	 H	1	UNK0	0.000	
22	 H46	-2.300	209.660	114.670	 H	1	UNK0	0.000	
23	 H41	-4.140	208.740	117.610	 H	1	UNK0	0.000	
24	 H40	-3.460	210.130	116.750	 H	1	UNK0	0.000	
25	 H39	-3.540	207.220	115.730	 H	1	UNK0	0.000	
26	 H42	-2.400	208.830	117.330	 H	1	UNK0	0.000	
27	 H45	-0.410	208.270	114.270	 H	1	UNK0	0.000	
28	 H44	-1.210	207.000	115.260	 H	1	UNK0	0.000	
29	 H43	-0.790	208.590	116.000	 H	1	UNK0	0.000	
30	 H29	-7.920	210.420	114.530	 H	1	UNK0	0.000	
31	 H33	-17.960	207.660	112.780	 H	1	UNK0	0.000	
32	 H24	-6.070	209.380	117.470	 H	1	UNK0	0.000	
33	 H32	-18.170	206.110	113.600	 H	1	UNK0	0.000	
34	 H01	-14.090	208.740	114.190	 H	1	UNK0	0.000	
35	 H02	-14.530	206.720	116.410	 H	1	UNK0	0.000	
36	 H03	-14.770	208.460	116.420	 H	1	UNK0	0.000	
37	 H04	-12.690	207.950	117.690	 H	1	UNK0	0.000	
38	 H05	-9.930	206.840	116.770	 H	1	UNK0	0.000	
39	 H06	-10.440	208.280	117.600	 H	1	UNK0	0.000	
40	 H07	-9.510	209.580	115.510	 H	1	UNK0	0.000	
41	 H08	-8.290	206.790	115.240	 H	1	UNK0	0.000	
42	 H09	-8.770	207.110	112.820	 H	1	UNK0	0.000	
43	 H10	-9.670	208.570	113.210	 H	1	UNK0	0.000	
44	 H11	-10.250	205.960	114.660	 H	1	UNK0	0.000	
45	 H12	-10.800	206.230	113.010	 H	1	UNK0	0.000	
46	 H13	-11.610	208.570	113.940	 H	1	UNK0	0.000	
47	 H14	-12.390	206.390	111.950	 H	1	UNK0	0.000	
48	  C1	-15.440	206.730	112.790	C.2	1	UNK0	0.000	
49	  N1	-15.430	207.130	114.020	N.2	1	UNK0	0.000	
50	  C2	-14.150	207.690	114.510	C.3	1	UNK0	0.000	
51	  C3	-14.120	207.670	116.040	C.3	1	UNK0	0.000	
52	  C4	-12.740	207.830	116.610	C.2	1	UNK0	0.000	
53	  C5	-11.610	207.800	115.900	C.2	1	UNK0	0.000	
54	  C6	-10.270	207.860	116.600	C.3	1	UNK0	0.000	
55	  C7	-9.130	208.630	115.920	C.3	1	UNK0	0.000	
56	  C8	-8.480	207.780	114.820	C.3	1	UNK0	0.000	
57	  C9	-9.340	207.600	113.610	C.3	1	UNK0	0.000	
58	 C10	-10.520	206.740	113.930	C.3	1	UNK0	0.000	
59	 C11	-11.670	207.580	114.410	C.3	1	UNK0	0.000	
60	 C12	-12.980	206.930	113.950	C.3	1	UNK0	0.000	
61	 C13	-13.090	207.060	112.460	C.3	1	UNK0	0.000	
62	  O1	-14.370	206.720	111.950	O.3	1	UNK0	0.000	
63	 C14	-13.020	205.460	114.360	C.3	1	UNK0	0.000	
64	 C15	-7.160	208.380	114.380	C.3	1	UNK0	0.000	
65	 C16	-6.410	207.620	113.270	C.3	1	UNK0	0.000	
66	 C17	-4.920	207.940	113.510	C.3	1	UNK0	0.000	
67	 C18	-4.830	208.730	114.840	C.3	1	UNK0	0.000	
68	 C19	-6.170	208.390	115.550	C.3	1	UNK0	0.000	
69	 C20	-6.700	209.380	116.570	C.3	1	UNK0	0.000	
70	 C21	-8.090	208.960	116.990	C.2	1	UNK0	0.000	
71	  O2	-8.370	208.910	118.180	O.2	1	UNK0	0.000	
72	 C22	-6.030	207.010	116.190	C.3	1	UNK0	0.000	
73	  O3	-4.370	208.660	112.420	O.3	1	UNK0	0.000	
74	 C23	-7.390	209.770	113.830	C.3	1	UNK0	0.000	
75	 C24	-17.960	206.570	112.650	C.3	1	UNK0	0.000	
76	 C25	-16.630	206.070	112.120	C.3	1	UNK0	0.000	
77	 C26	-16.570	204.570	112.370	C.3	1	UNK0	0.000	
78	 C27	-3.560	208.300	115.580	C.3	1	UNK0	0.000	
79	 C28	-3.380	209.040	116.890	C.3	1	UNK0	0.000	
80	 C29	-1.100	208.070	115.090	C.3	1	UNK0	0.000	
81	  N2	-2.430	208.600	114.690	N.4	1	UNK0	0.000	
@<TRIPOS>BOND
1 48 49 2
2 48 62 1
3 48 76 1
4 49 50 1
5 34 50 1
6 50 51 1
7 50 60 1
8 35 51 1
9 36 51 1
10 51 52 1
11 37 52 1
12 52 53 2
13 53 54 1
14 53 59 1
15 38 54 1
16 39 54 1
17 54 55 1
18 40 55 1
19 55 56 1
20 55 70 1
21 41 56 1
22 56 57 1
23 56 64 1
24 42 57 1
25 43 57 1
26 57 58 1
27 44 58 1
28 45 58 1
29 58 59 1
30 46 59 1
31 59 60 1
32 60 61 1
33 60 63 1
34 1 61 1
35 47 61 1
36 61 62 1
37 2 63 1
38 3 63 1
39 7 63 1
40 64 65 1
41 64 68 1
42 64 74 1
43 6 65 1
44 16 65 1
45 65 66 1
46 5 66 1
47 66 67 1
48 66 73 1
49 4 67 1
50 67 68 1
51 67 78 1
52 68 69 1
53 68 72 1
54 15 69 1
55 32 69 1
56 69 70 1
57 70 71 2
58 10 72 1
59 12 72 1
60 14 72 1
61 11 73 1
62 8 74 1
63 9 74 1
64 30 74 1
65 18 75 1
66 31 75 1
67 33 75 1
68 75 76 1
69 21 76 1
70 76 77 1
71 13 77 1
72 19 77 1
73 20 77 1
74 25 78 1
75 78 79 1
76 78 81 1
77 23 79 1
78 24 79 1
79 26 79 1
80 27 80 1
81 28 80 1
82 29 80 1
83 80 81 1
84 17 81 1
85 22 81 1
@<TRIPOS>SUBSTRUCTURE
1	UNK0	1	GROUP	1 ****	UNK
