# created with PyMOL 2.5.0
@<TRIPOS>MOLECULE
ZINC14969940
81 85 1                 
SMALL
USER_CHARGES
@<TRIPOS>ATOM
1	 H15	-11.990	207.200	112.100	 H	1	UNK0	0.000	
2	 H17	-13.220	204.390	114.450	 H	1	UNK0	0.000	
3	 H16	-11.840	204.630	115.520	 H	1	UNK0	0.000	
4	 H22	-3.170	207.260	115.500	 H	1	UNK0	0.000	
5	 H21	-3.080	206.490	113.410	 H	1	UNK0	0.000	
6	 H20	-5.240	205.630	113.870	 H	1	UNK0	0.000	
7	 H18	-11.600	204.080	113.850	 H	1	UNK0	0.000	
8	 H31	-6.680	208.530	112.560	 H	1	UNK0	0.000	
9	 H30	-7.160	209.410	114.030	 H	1	UNK0	0.000	
10	 H25	-4.400	206.840	117.280	 H	1	UNK0	0.000	
11	 H28	-3.910	207.660	111.630	 H	1	UNK0	0.000	
12	 H27	-4.760	205.750	115.940	 H	1	UNK0	0.000	
13	 H38	-17.090	205.670	113.890	 H	1	UNK0	0.000	
14	 H26	-6.070	206.390	116.950	 H	1	UNK0	0.000	
15	 H23	-5.800	209.900	115.740	 H	1	UNK0	0.000	
16	 H19	-5.660	206.590	112.430	 H	1	UNK0	0.000	
17	 H47	-3.380	209.770	113.110	 H	1	UNK0	0.000	
18	 H34	-17.040	206.840	110.670	 H	1	UNK0	0.000	
19	 H37	-16.740	204.080	113.180	 H	1	UNK0	0.000	
20	 H36	-17.900	205.160	112.410	 H	1	UNK0	0.000	
21	 H35	-15.640	205.100	111.270	 H	1	UNK0	0.000	
22	 H46	-3.870	210.970	114.160	 H	1	UNK0	0.000	
23	 H41	-3.820	210.460	116.500	 H	1	UNK0	0.000	
24	 H40	-2.070	210.570	116.490	 H	1	UNK0	0.000	
25	 H39	-1.840	208.900	114.800	 H	1	UNK0	0.000	
26	 H42	-2.850	209.120	117.150	 H	1	UNK0	0.000	
27	 H45	-2.230	211.920	113.030	 H	1	UNK0	0.000	
28	 H44	-1.240	210.390	113.070	 H	1	UNK0	0.000	
29	 H43	-1.440	211.410	114.550	 H	1	UNK0	0.000	
30	 H29	-5.490	209.430	113.500	 H	1	UNK0	0.000	
31	 H33	-15.650	207.770	111.280	 H	1	UNK0	0.000	
32	 H24	-5.240	209.150	117.240	 H	1	UNK0	0.000	
33	 H32	-17.090	207.530	112.290	 H	1	UNK0	0.000	
34	 H01	-12.980	208.070	114.180	 H	1	UNK0	0.000	
35	 H02	-13.560	206.130	116.430	 H	1	UNK0	0.000	
36	 H03	-13.770	207.870	116.400	 H	1	UNK0	0.000	
37	 H04	-11.690	207.440	117.650	 H	1	UNK0	0.000	
38	 H05	-8.920	206.240	116.780	 H	1	UNK0	0.000	
39	 H06	-9.430	207.730	117.520	 H	1	UNK0	0.000	
40	 H07	-8.640	208.770	115.150	 H	1	UNK0	0.000	
41	 H08	-7.270	206.040	115.380	 H	1	UNK0	0.000	
42	 H09	-7.720	206.050	112.930	 H	1	UNK0	0.000	
43	 H10	-8.590	207.560	113.100	 H	1	UNK0	0.000	
44	 H11	-9.320	205.120	114.770	 H	1	UNK0	0.000	
45	 H12	-9.840	205.290	113.100	 H	1	UNK0	0.000	
46	 H13	-10.580	207.720	113.850	 H	1	UNK0	0.000	
47	 H14	-11.480	205.520	112.030	 H	1	UNK0	0.000	
48	  C1	-14.570	206.070	112.850	C.2	1	UNK0	0.000	
49	  N1	-14.510	206.660	114.010	N.2	1	UNK0	0.000	
50	  C2	-13.170	207.050	114.510	C.3	1	UNK0	0.000	
51	  C3	-13.140	207.060	116.040	C.3	1	UNK0	0.000	
52	  C4	-11.750	207.230	116.590	C.2	1	UNK0	0.000	
53	  C5	-10.630	207.110	115.860	C.2	1	UNK0	0.000	
54	  C6	-9.280	207.250	116.550	C.3	1	UNK0	0.000	
55	  C7	-8.180	207.970	115.760	C.3	1	UNK0	0.000	
56	  C8	-7.450	206.970	114.840	C.3	1	UNK0	0.000	
57	  C9	-8.310	206.640	113.630	C.3	1	UNK0	0.000	
58	 C10	-9.550	205.850	113.990	C.3	1	UNK0	0.000	
59	 C11	-10.690	206.780	114.400	C.3	1	UNK0	0.000	
60	 C12	-12.050	206.170	113.990	C.3	1	UNK0	0.000	
61	 C13	-12.190	206.200	112.490	C.3	1	UNK0	0.000	
62	  O1	-13.490	205.800	112.050	O.3	1	UNK0	0.000	
63	 C14	-12.190	204.740	114.490	C.3	1	UNK0	0.000	
64	 C15	-6.120	207.540	114.360	C.3	1	UNK0	0.000	
65	 C16	-5.270	206.640	113.450	C.3	1	UNK0	0.000	
66	 C17	-3.860	207.260	113.520	C.3	1	UNK0	0.000	
67	 C18	-3.760	207.960	114.910	C.3	1	UNK0	0.000	
68	 C19	-5.190	207.850	115.540	C.3	1	UNK0	0.000	
69	 C20	-5.800	208.990	116.330	C.3	1	UNK0	0.000	
70	 C21	-7.240	208.670	116.740	C.2	1	UNK0	0.000	
71	  O2	-7.680	209.220	117.740	O.2	1	UNK0	0.000	
72	 C22	-5.110	206.640	116.480	C.3	1	UNK0	0.000	
73	  O3	-3.710	208.170	112.440	O.3	1	UNK0	0.000	
74	 C23	-6.380	208.800	113.570	C.3	1	UNK0	0.000	
75	 C24	-16.430	207.060	111.550	C.3	1	UNK0	0.000	
76	 C25	-15.870	205.770	112.100	C.3	1	UNK0	0.000	
77	 C26	-16.950	205.130	112.950	C.3	1	UNK0	0.000	
78	 C27	-2.860	209.230	115.000	C.3	1	UNK0	0.000	
79	 C28	-2.900	209.880	116.360	C.3	1	UNK0	0.000	
80	 C29	-1.900	211.060	113.630	C.3	1	UNK0	0.000	
81	  N2	-3.110	210.280	113.970	N.4	1	UNK0	0.000	
@<TRIPOS>BOND
1 48 49 2
2 48 62 1
3 48 76 1
4 49 50 1
5 34 50 1
6 50 51 1
7 50 60 1
8 35 51 1
9 36 51 1
10 51 52 1
11 37 52 1
12 52 53 2
13 53 54 1
14 53 59 1
15 38 54 1
16 39 54 1
17 54 55 1
18 40 55 1
19 55 56 1
20 55 70 1
21 41 56 1
22 56 57 1
23 56 64 1
24 42 57 1
25 43 57 1
26 57 58 1
27 44 58 1
28 45 58 1
29 58 59 1
30 46 59 1
31 59 60 1
32 60 61 1
33 60 63 1
34 1 61 1
35 47 61 1
36 61 62 1
37 2 63 1
38 3 63 1
39 7 63 1
40 64 65 1
41 64 68 1
42 64 74 1
43 6 65 1
44 16 65 1
45 65 66 1
46 5 66 1
47 66 67 1
48 66 73 1
49 4 67 1
50 67 68 1
51 67 78 1
52 68 69 1
53 68 72 1
54 15 69 1
55 32 69 1
56 69 70 1
57 70 71 2
58 10 72 1
59 12 72 1
60 14 72 1
61 11 73 1
62 8 74 1
63 9 74 1
64 30 74 1
65 18 75 1
66 31 75 1
67 33 75 1
68 75 76 1
69 21 76 1
70 76 77 1
71 13 77 1
72 19 77 1
73 20 77 1
74 25 78 1
75 78 79 1
76 78 81 1
77 23 79 1
78 24 79 1
79 26 79 1
80 27 80 1
81 28 80 1
82 29 80 1
83 80 81 1
84 17 81 1
85 22 81 1
@<TRIPOS>SUBSTRUCTURE
1	UNK0	1	GROUP	1 ****	UNK
