# created with PyMOL 2.5.0
@<TRIPOS>MOLECULE
ZINC14969940
81 85 1                 
SMALL
USER_CHARGES
@<TRIPOS>ATOM
1	 H15	-9.930	203.940	109.890	 H	1	UNK0	0.000	
2	 H17	-30.720	191.670	107.160	 H	1	UNK0	0.000	
3	 H16	-31.870	196.100	116.740	 H	1	UNK0	0.000	
4	 H22	-16.150	205.010	103.100	 H	1	UNK0	0.000	
5	 H21	-18.320	201.170	106.440	 H	1	UNK0	0.000	
6	 H20	-14.490	200.450	106.760	 H	1	UNK0	0.000	
7	 H18	-28.570	203.260	113.690	 H	1	UNK0	0.000	
8	 H31	-8.970	214.310	115.220	 H	1	UNK0	0.000	
9	 H30	-0.920	215.490	116.390	 H	1	UNK0	0.000	
10	 H25	-14.290	216.190	115.300	 H	1	UNK0	0.000	
11	 H28	-8.180	208.990	111.850	 H	1	UNK0	0.000	
12	 H27	-20.550	211.920	108.970	 H	1	UNK0	0.000	
13	 H38	-30.350	201.060	113.290	 H	1	UNK0	0.000	
14	 H26	-18.630	218.410	107.730	 H	1	UNK0	0.000	
15	 H23	-14.980	204.830	103.350	 H	1	UNK0	0.000	
16	 H19	-14.280	202.100	108.150	 H	1	UNK0	0.000	
17	 H47	3.760	216.300	111.500	 H	1	UNK0	0.000	
18	 H34	-21.330	208.950	108.420	 H	1	UNK0	0.000	
19	 H37	-32.100	200.310	117.640	 H	1	UNK0	0.000	
20	 H36	-29.540	202.430	116.330	 H	1	UNK0	0.000	
21	 H35	-17.430	201.070	115.850	 H	1	UNK0	0.000	
22	 H46	-1.390	215.120	105.330	 H	1	UNK0	0.000	
23	 H41	-1.980	210.220	112.070	 H	1	UNK0	0.000	
24	 H40	-5.000	210.750	117.450	 H	1	UNK0	0.000	
25	 H39	-2.890	210.860	113.060	 H	1	UNK0	0.000	
26	 H42	-0.490	209.450	113.660	 H	1	UNK0	0.000	
27	 H45	0.950	204.400	110.520	 H	1	UNK0	0.000	
28	 H44	2.880	204.080	111.110	 H	1	UNK0	0.000	
29	 H43	2.610	202.690	111.790	 H	1	UNK0	0.000	
30	 H29	4.450	215.000	120.230	 H	1	UNK0	0.000	
31	 H33	-25.670	203.230	104.990	 H	1	UNK0	0.000	
32	 H24	-14.760	203.620	101.730	 H	1	UNK0	0.000	
33	 H32	-27.610	199.510	117.400	 H	1	UNK0	0.000	
34	 H01	-8.720	204.240	107.820	 H	1	UNK0	0.000	
35	 H02	-7.840	202.060	106.370	 H	1	UNK0	0.000	
36	 H03	-7.150	203.680	106.230	 H	1	UNK0	0.000	
37	 H04	-7.480	202.770	105.010	 H	1	UNK0	0.000	
38	 H05	-11.410	201.780	104.250	 H	1	UNK0	0.000	
39	 H06	-10.770	203.010	103.690	 H	1	UNK0	0.000	
40	 H07	-13.390	204.300	104.380	 H	1	UNK0	0.000	
41	 H08	-14.780	200.900	105.760	 H	1	UNK0	0.000	
42	 H09	-13.280	202.370	108.320	 H	1	UNK0	0.000	
43	 H10	-12.890	203.780	107.420	 H	1	UNK0	0.000	
44	 H11	-11.260	201.200	105.700	 H	1	UNK0	0.000	
45	 H12	-9.990	198.930	105.550	 H	1	UNK0	0.000	
46	 H13	-11.770	202.880	107.770	 H	1	UNK0	0.000	
47	 H14	-11.590	201.500	110.190	 H	1	UNK0	0.000	
48	  C1	-5.950	202.180	108.740	C.2	1	UNK0	0.000	
49	  N1	-7.760	202.250	107.950	N.2	1	UNK0	0.000	
50	  C2	-8.440	203.120	107.750	C.3	1	UNK0	0.000	
51	  C3	-6.960	203.440	107.660	C.3	1	UNK0	0.000	
52	  C4	-9.450	203.730	106.180	C.2	1	UNK0	0.000	
53	  C5	-10.050	202.740	105.740	C.2	1	UNK0	0.000	
54	  C6	-9.590	201.290	103.790	C.3	1	UNK0	0.000	
55	  C7	-12.930	203.970	104.030	C.3	1	UNK0	0.000	
56	  C8	-12.420	201.230	104.120	C.3	1	UNK0	0.000	
57	  C9	-14.370	204.850	104.230	C.3	1	UNK0	0.000	
58	 C10	-11.080	201.900	107.810	C.3	1	UNK0	0.000	
59	 C11	-10.600	202.890	106.500	C.3	1	UNK0	0.000	
60	 C12	-8.250	201.650	107.300	C.3	1	UNK0	0.000	
61	 C13	-10.170	203.340	109.540	C.3	1	UNK0	0.000	
62	  O1	-7.670	204.560	108.700	O.3	1	UNK0	0.000	
63	 C14	-29.540	186.920	111.240	C.3	1	UNK0	0.000	
64	 C15	-13.540	201.380	104.720	C.3	1	UNK0	0.000	
65	 C16	-17.640	205.420	108.150	C.3	1	UNK0	0.000	
66	 C17	-19.460	204.040	107.570	C.3	1	UNK0	0.000	
67	 C18	-18.690	204.510	105.610	C.3	1	UNK0	0.000	
68	 C19	-15.990	207.930	103.190	C.3	1	UNK0	0.000	
69	 C20	-14.820	204.380	103.200	C.3	1	UNK0	0.000	
70	 C21	-11.760	202.570	104.070	C.2	1	UNK0	0.000	
71	  O2	-13.230	201.820	100.450	O.2	1	UNK0	0.000	
72	 C22	-20.700	211.520	103.610	C.3	1	UNK0	0.000	
73	  O3	-13.130	207.790	108.800	O.3	1	UNK0	0.000	
74	 C23	-6.410	219.590	124.170	C.3	1	UNK0	0.000	
75	 C24	-27.860	211.470	120.820	C.3	1	UNK0	0.000	
76	 C25	-16.580	198.110	110.890	C.3	1	UNK0	0.000	
77	 C26	-35.150	203.220	110.470	C.3	1	UNK0	0.000	
78	 C27	-5.370	205.880	110.150	C.3	1	UNK0	0.000	
79	 C28	-1.740	204.280	119.510	C.3	1	UNK0	0.000	
80	 C29	0.490	208.850	114.060	C.3	1	UNK0	0.000	
81	  N2	3.430	205.910	102.770	N.4	1	UNK0	0.000	
@<TRIPOS>BOND
1 48 49 2
2 48 62 1
3 48 76 1
4 49 50 1
5 34 50 1
6 50 51 1
7 50 60 1
8 35 51 1
9 36 51 1
10 51 52 1
11 37 52 1
12 52 53 2
13 53 54 1
14 53 59 1
15 38 54 1
16 39 54 1
17 54 55 1
18 40 55 1
19 55 56 1
20 55 70 1
21 41 56 1
22 56 57 1
23 56 64 1
24 42 57 1
25 43 57 1
26 57 58 1
27 44 58 1
28 45 58 1
29 58 59 1
30 46 59 1
31 59 60 1
32 60 61 1
33 60 63 1
34 1 61 1
35 47 61 1
36 61 62 1
37 2 63 1
38 3 63 1
39 7 63 1
40 64 65 1
41 64 68 1
42 64 74 1
43 6 65 1
44 16 65 1
45 65 66 1
46 5 66 1
47 66 67 1
48 66 73 1
49 4 67 1
50 67 68 1
51 67 78 1
52 68 69 1
53 68 72 1
54 15 69 1
55 32 69 1
56 69 70 1
57 70 71 2
58 10 72 1
59 12 72 1
60 14 72 1
61 11 73 1
62 8 74 1
63 9 74 1
64 30 74 1
65 18 75 1
66 31 75 1
67 33 75 1
68 75 76 1
69 21 76 1
70 76 77 1
71 13 77 1
72 19 77 1
73 20 77 1
74 25 78 1
75 78 79 1
76 78 81 1
77 23 79 1
78 24 79 1
79 26 79 1
80 27 80 1
81 28 80 1
82 29 80 1
83 80 81 1
84 17 81 1
85 22 81 1
@<TRIPOS>SUBSTRUCTURE
1	UNK0	1	GROUP	1 ****	UNK
