step2_200_2000_5.0_86498.xyz.gro
  PyMOL2.5          3D                             0

 34 38  0  0  0  0  0  0  0  0999 V2000
  -14.9986  206.5551  112.9956 C   0  0  0  0  0  0  0  0  0  0  0  0
  -15.0081  207.1946  114.1259 N   0  0  0  0  0  0  0  0  0  0  0  0
  -13.7179  207.5240  114.7457 C   0  0  0  0  0  0  0  0  0  0  0  0
  -13.8374  207.5033  116.2557 C   0  0  0  0  0  0  0  0  0  0  0  0
  -12.5072  207.5928  116.9454 C   0  0  0  0  0  0  0  0  0  0  0  0
  -11.3374  207.4828  116.2749 C   0  0  0  0  0  0  0  0  0  0  0  0
  -10.0272  207.5822  116.9946 C   0  0  0  0  0  0  0  0  0  0  0  0
   -9.0572  208.5624  116.3248 C   0  0  0  0  0  0  0  0  0  0  0  0
   -8.2276  207.8927  115.2242 C   0  0  0  0  0  0  0  0  0  0  0  0
   -9.0081  207.4935  114.0042 C   0  0  0  0  0  0  0  0  0  0  0  0
  -10.1082  206.5135  114.3341 C   0  0  0  0  0  0  0  0  0  0  0  0
  -11.3279  207.2735  114.7948 C   0  0  0  0  0  0  0  0  0  0  0  0
  -12.6082  206.6140  114.2949 C   0  0  0  0  0  0  0  0  0  0  0  0
  -12.6287  206.5647  112.7849 C   0  0  0  0  0  0  0  0  0  0  0  0
  -13.8989  206.1652  112.2951 O   0  0  0  0  0  0  0  0  0  0  0  0
  -12.7583  205.2038  114.8443 C   0  0  0  0  0  0  0  0  0  0  0  0
   -7.1276  208.8327  114.7743 C   0  0  0  0  0  0  0  0  0  0  0  0
   -6.2380  208.3531  113.6338 C   0  0  0  0  0  0  0  0  0  0  0  0
   -4.8778  209.0127  113.8837 C   0  0  0  0  0  0  0  0  0  0  0  0
   -4.9673  209.7921  115.2141 C   0  0  0  0  0  0  0  0  0  0  0  0
   -6.1572  209.1020  115.9441 C   0  0  0  0  0  0  0  0  0  0  0  0
   -6.9167  209.8917  116.9847 C   0  0  0  0  0  0  0  0  0  0  0  0
   -8.1567  209.1517  117.4148 C   0  0  0  0  0  0  0  0  0  0  0  0
   -8.5364  209.2312  118.5749 O   0  0  0  0  0  0  0  0  0  0  0  0
   -5.6273  207.8016  116.5533 C   0  0  0  0  0  0  0  0  0  0  0  0
   -4.4780  209.9131  112.8440 O   0  0  0  0  0  0  0  0  0  0  0  0
   -7.7375  210.1431  114.2951 C   0  0  0  0  0  0  0  0  0  0  0  0
  -16.3791  204.5956  112.4551 C   0  0  0  0  0  0  0  0  0  0  0  0
  -16.2789  206.0856  112.3458 C   0  0  0  0  0  0  0  0  0  0  0  0
  -16.3393  206.5264  110.8860 C   0  0  0  0  0  0  0  0  0  0  0  0
   -3.6271  209.7615  115.9036 C   0  0  0  0  0  0  0  0  0  0  0  0
   -3.5765  210.6209  117.1440 C   0  0  0  0  0  0  0  0  0  0  0  0
   -1.4975  209.4517  114.6628 C   0  0  0  0  0  0  0  0  0  0  0  0
   -2.6073  210.3218  114.9336 N   0  0  0  0  0  0  0  0  0  0  0  0
  1  2  1  0  0  0  0
  1 15  1  0  0  0  0
  1 29  1  0  0  0  0
  2  3  1  0  0  0  0
  3  4  1  0  0  0  0
  3 13  1  0  0  0  0
  4  5  1  0  0  0  0
  5  6  1  0  0  0  0
  6  7  1  0  0  0  0
  6 12  1  0  0  0  0
  7  8  1  0  0  0  0
  8  9  1  0  0  0  0
  8 23  1  0  0  0  0
  9 10  1  0  0  0  0
  9 17  1  0  0  0  0
 10 11  1  0  0  0  0
 11 12  1  0  0  0  0
 12 13  1  0  0  0  0
 13 14  1  0  0  0  0
 13 16  1  0  0  0  0
 14 15  1  0  0  0  0
 17 18  1  0  0  0  0
 17 21  1  0  0  0  0
 17 27  1  0  0  0  0
 18 19  1  0  0  0  0
 19 20  1  0  0  0  0
 19 26  1  0  0  0  0
 20 21  1  0  0  0  0
 20 31  1  0  0  0  0
 21 22  1  0  0  0  0
 21 25  1  0  0  0  0
 22 23  1  0  0  0  0
 23 24  1  0  0  0  0
 28 29  1  0  0  0  0
 29 30  1  0  0  0  0
 31 32  1  0  0  0  0
 31 34  1  0  0  0  0
 33 34  1  0  0  0  0
M  END
$$$$
