step2_200_2000_5.0_13001.xyz.gro
  PyMOL2.5          3D                             0

 34 38  0  0  0  0  0  0  0  0999 V2000
  -15.9106  206.2971  112.5557 C   0  0  0  0  0  0  0  0  0  0  0  0
  -15.7403  206.4266  113.8457 N   0  0  0  0  0  0  0  0  0  0  0  0
  -14.3701  206.6860  114.3355 C   0  0  0  0  0  0  0  0  0  0  0  0
  -14.1700  206.0754  115.7152 C   0  0  0  0  0  0  0  0  0  0  0  0
  -12.7498  206.2047  116.1749 C   0  0  0  0  0  0  0  0  0  0  0  0
  -11.7299  206.5047  115.3448 C   0  0  0  0  0  0  0  0  0  0  0  0
  -10.3397  206.7040  115.8745 C   0  0  0  0  0  0  0  0  0  0  0  0
   -9.5895  207.8640  115.2047 C   0  0  0  0  0  0  0  0  0  0  0  0
   -8.8599  207.3742  113.9344 C   0  0  0  0  0  0  0  0  0  0  0  0
   -9.8003  207.1050  112.7745 C   0  0  0  0  0  0  0  0  0  0  0  0
  -10.8206  206.0352  113.0744 C   0  0  0  0  0  0  0  0  0  0  0  0
  -11.9502  206.6753  113.8749 C   0  0  0  0  0  0  0  0  0  0  0  0
  -13.3105  206.1559  113.3950 C   0  0  0  0  0  0  0  0  0  0  0  0
  -13.6306  206.7666  112.0553 C   0  0  0  0  0  0  0  0  0  0  0  0
  -14.9308  206.4072  111.6155 O   0  0  0  0  0  0  0  0  0  0  0  0
  -13.3410  204.6360  113.3145 C   0  0  0  0  0  0  0  0  0  0  0  0
   -7.8297  208.3940  113.4645 C   0  0  0  0  0  0  0  0  0  0  0  0
   -6.9601  207.9542  112.2841 C   0  0  0  0  0  0  0  0  0  0  0  0
   -5.6298  208.7337  112.4641 C   0  0  0  0  0  0  0  0  0  0  0  0
   -5.7493  209.5132  113.7944 C   0  0  0  0  0  0  0  0  0  0  0  0
   -6.8093  208.7033  114.5744 C   0  0  0  0  0  0  0  0  0  0  0  0
   -7.5588  209.4031  115.6948 C   0  0  0  0  0  0  0  0  0  0  0  0
   -8.5990  208.4433  116.2047 C   0  0  0  0  0  0  0  0  0  0  0  0
   -8.5989  208.1229  117.3846 O   0  0  0  0  0  0  0  0  0  0  0  0
   -6.1397  207.4329  115.0737 C   0  0  0  0  0  0  0  0  0  0  0  0
   -5.4298  209.6140  111.3944 O   0  0  0  0  0  0  0  0  0  0  0  0
   -8.5594  209.6545  113.0052 C   0  0  0  0  0  0  0  0  0  0  0  0
  -18.1605  207.1582  111.9066 C   0  0  0  0  0  0  0  0  0  0  0  0
  -17.2409  205.9578  111.9259 C   0  0  0  0  0  0  0  0  0  0  0  0
  -17.9111  204.8278  112.6756 C   0  0  0  0  0  0  0  0  0  0  0  0
   -4.3690  209.6625  114.4341 C   0  0  0  0  0  0  0  0  0  0  0  0
   -4.4585  210.2020  115.8544 C   0  0  0  0  0  0  0  0  0  0  0  0
   -2.6584  211.5120  114.3144 C   0  0  0  0  0  0  0  0  0  0  0  0
   -3.5989  210.6226  113.6043 N   0  0  0  0  0  0  0  0  0  0  0  0
  1  2  1  0  0  0  0
  1 15  1  0  0  0  0
  1 29  1  0  0  0  0
  2  3  1  0  0  0  0
  3  4  1  0  0  0  0
  3 13  1  0  0  0  0
  4  5  1  0  0  0  0
  5  6  1  0  0  0  0
  6  7  1  0  0  0  0
  6 12  1  0  0  0  0
  7  8  1  0  0  0  0
  8  9  1  0  0  0  0
  8 23  1  0  0  0  0
  9 10  1  0  0  0  0
  9 17  1  0  0  0  0
 10 11  1  0  0  0  0
 11 12  1  0  0  0  0
 12 13  1  0  0  0  0
 13 14  1  0  0  0  0
 13 16  1  0  0  0  0
 14 15  1  0  0  0  0
 17 18  1  0  0  0  0
 17 21  1  0  0  0  0
 17 27  1  0  0  0  0
 18 19  1  0  0  0  0
 19 20  1  0  0  0  0
 19 26  1  0  0  0  0
 20 21  1  0  0  0  0
 20 31  1  0  0  0  0
 21 22  1  0  0  0  0
 21 25  1  0  0  0  0
 22 23  1  0  0  0  0
 23 24  1  0  0  0  0
 28 29  1  0  0  0  0
 29 30  1  0  0  0  0
 31 32  1  0  0  0  0
 31 34  1  0  0  0  0
 33 34  1  0  0  0  0
M  END
$$$$
