# created with PyMOL 2.5.0
@<TRIPOS>MOLECULE
ZINC14969940
81 85 1                 
SMALL
USER_CHARGES
@<TRIPOS>ATOM
1	 H15	-13.100	206.900	111.360	 H	1	UNK0	0.000	
2	 H17	-15.520	205.340	112.890	 H	1	UNK0	0.000	
3	 H16	-13.920	205.030	113.530	 H	1	UNK0	0.000	
4	 H22	-6.550	208.910	116.310	 H	1	UNK0	0.000	
5	 H21	-5.850	206.180	115.170	 H	1	UNK0	0.000	
6	 H20	-7.940	205.870	114.350	 H	1	UNK0	0.000	
7	 H18	-15.210	205.670	114.580	 H	1	UNK0	0.000	
8	 H31	-9.360	209.660	115.550	 H	1	UNK0	0.000	
9	 H30	-9.190	209.140	113.880	 H	1	UNK0	0.000	
10	 H25	-7.520	205.900	118.130	 H	1	UNK0	0.000	
11	 H28	-6.010	208.360	113.560	 H	1	UNK0	0.000	
12	 H27	-7.560	205.340	116.460	 H	1	UNK0	0.000	
13	 H38	-18.190	209.150	110.720	 H	1	UNK0	0.000	
14	 H26	-9.060	205.580	117.350	 H	1	UNK0	0.000	
15	 H23	-8.780	209.340	117.500	 H	1	UNK0	0.000	
16	 H19	-7.770	207.360	113.370	 H	1	UNK0	0.000	
17	 H47	-4.400	207.940	115.730	 H	1	UNK0	0.000	
18	 H34	-15.360	211.710	110.650	 H	1	UNK0	0.000	
19	 H37	-17.390	208.120	109.540	 H	1	UNK0	0.000	
20	 H36	-17.990	209.720	109.060	 H	1	UNK0	0.000	
21	 H35	-15.530	209.710	109.360	 H	1	UNK0	0.000	
22	 H46	-4.110	208.900	117.000	 H	1	UNK0	0.000	
23	 H41	-6.530	207.560	119.240	 H	1	UNK0	0.000	
24	 H40	-5.810	209.070	118.670	 H	1	UNK0	0.000	
25	 H39	-5.420	206.310	117.390	 H	1	UNK0	0.000	
26	 H42	-4.780	207.790	119.350	 H	1	UNK0	0.000	
27	 H45	-3.230	206.090	116.700	 H	1	UNK0	0.000	
28	 H44	-2.900	207.120	118.150	 H	1	UNK0	0.000	
29	 H43	-2.200	207.560	116.550	 H	1	UNK0	0.000	
30	 H29	-7.770	209.460	114.800	 H	1	UNK0	0.000	
31	 H33	-16.780	211.340	111.610	 H	1	UNK0	0.000	
32	 H24	-8.480	208.090	118.720	 H	1	UNK0	0.000	
33	 H32	-16.970	211.730	109.890	 H	1	UNK0	0.000	
34	 H01	-14.470	209.220	113.660	 H	1	UNK0	0.000	
35	 H02	-16.460	207.360	114.910	 H	1	UNK0	0.000	
36	 H03	-16.220	209.070	115.270	 H	1	UNK0	0.000	
37	 H04	-14.830	207.800	116.940	 H	1	UNK0	0.000	
38	 H05	-12.190	206.000	116.450	 H	1	UNK0	0.000	
39	 H06	-12.730	207.280	117.490	 H	1	UNK0	0.000	
40	 H07	-11.140	208.800	115.950	 H	1	UNK0	0.000	
41	 H08	-10.050	205.940	115.640	 H	1	UNK0	0.000	
42	 H09	-9.910	206.350	113.280	 H	1	UNK0	0.000	
43	 H10	-10.630	207.940	113.440	 H	1	UNK0	0.000	
44	 H11	-12.070	205.460	114.400	 H	1	UNK0	0.000	
45	 H12	-12.060	205.950	112.720	 H	1	UNK0	0.000	
46	 H13	-12.600	208.360	113.700	 H	1	UNK0	0.000	
47	 H14	-14.790	206.510	111.170	 H	1	UNK0	0.000	
48	  C1	-15.560	209.030	111.390	C.2	1	UNK0	0.000	
49	  N1	-16.120	208.800	112.540	N.2	1	UNK0	0.000	
50	  C2	-15.140	208.360	113.550	C.3	1	UNK0	0.000	
51	  C3	-15.720	208.160	114.940	C.3	1	UNK0	0.000	
52	  C4	-14.600	207.810	115.890	C.2	1	UNK0	0.000	
53	  C5	-13.370	207.480	115.480	C.2	1	UNK0	0.000	
54	  C6	-12.330	207.080	116.490	C.3	1	UNK0	0.000	
55	  C7	-10.990	207.770	116.300	C.3	1	UNK0	0.000	
56	  C8	-10.110	206.980	115.310	C.3	1	UNK0	0.000	
57	  C9	-10.610	206.940	113.880	C.3	1	UNK0	0.000	
58	 C10	-11.970	206.330	113.740	C.3	1	UNK0	0.000	
59	 C11	-13.020	207.400	114.000	C.3	1	UNK0	0.000	
60	 C12	-14.280	207.160	113.170	C.3	1	UNK0	0.000	
61	 C13	-14.100	207.210	111.650	C.3	1	UNK0	0.000	
62	  O1	-14.330	208.500	111.060	O.3	1	UNK0	0.000	
63	 C14	-14.770	205.750	113.580	C.3	1	UNK0	0.000	
64	 C15	-8.720	207.580	115.320	C.3	1	UNK0	0.000	
65	 C16	-7.720	206.930	114.370	C.3	1	UNK0	0.000	
66	 C17	-6.340	207.150	115.040	C.3	1	UNK0	0.000	
67	 C18	-6.610	207.830	116.400	C.3	1	UNK0	0.000	
68	 C19	-8.070	207.430	116.710	C.3	1	UNK0	0.000	
69	 C20	-8.850	208.270	117.710	C.3	1	UNK0	0.000	
70	 C21	-10.300	207.860	117.650	C.2	1	UNK0	0.000	
71	  O2	-10.890	207.620	118.700	O.2	1	UNK0	0.000	
72	 C22	-8.060	205.980	117.180	C.3	1	UNK0	0.000	
73	  O3	-5.470	207.970	114.280	O.3	1	UNK0	0.000	
74	 C23	-8.770	209.040	114.880	C.3	1	UNK0	0.000	
75	 C24	-16.340	211.220	110.620	C.3	1	UNK0	0.000	
76	 C25	-16.180	209.760	110.240	C.3	1	UNK0	0.000	
77	 C26	-17.520	209.150	109.870	C.3	1	UNK0	0.000	
78	 C27	-5.510	207.400	117.350	C.3	1	UNK0	0.000	
79	 C28	-5.670	207.990	118.730	C.3	1	UNK0	0.000	
80	 C29	-3.040	207.110	117.060	C.3	1	UNK0	0.000	
81	  N2	-4.240	207.910	116.760	N.4	1	UNK0	0.000	
@<TRIPOS>BOND
1 48 49 2
2 48 62 1
3 48 76 1
4 49 50 1
5 34 50 1
6 50 51 1
7 50 60 1
8 35 51 1
9 36 51 1
10 51 52 1
11 37 52 1
12 52 53 2
13 53 54 1
14 53 59 1
15 38 54 1
16 39 54 1
17 54 55 1
18 40 55 1
19 55 56 1
20 55 70 1
21 41 56 1
22 56 57 1
23 56 64 1
24 42 57 1
25 43 57 1
26 57 58 1
27 44 58 1
28 45 58 1
29 58 59 1
30 46 59 1
31 59 60 1
32 60 61 1
33 60 63 1
34 1 61 1
35 47 61 1
36 61 62 1
37 2 63 1
38 3 63 1
39 7 63 1
40 64 65 1
41 64 68 1
42 64 74 1
43 6 65 1
44 16 65 1
45 65 66 1
46 5 66 1
47 66 67 1
48 66 73 1
49 4 67 1
50 67 68 1
51 67 78 1
52 68 69 1
53 68 72 1
54 15 69 1
55 32 69 1
56 69 70 1
57 70 71 2
58 10 72 1
59 12 72 1
60 14 72 1
61 11 73 1
62 8 74 1
63 9 74 1
64 30 74 1
65 18 75 1
66 31 75 1
67 33 75 1
68 75 76 1
69 21 76 1
70 76 77 1
71 13 77 1
72 19 77 1
73 20 77 1
74 25 78 1
75 78 79 1
76 78 81 1
77 23 79 1
78 24 79 1
79 26 79 1
80 27 80 1
81 28 80 1
82 29 80 1
83 80 81 1
84 17 81 1
85 22 81 1
@<TRIPOS>SUBSTRUCTURE
1	UNK0	1	GROUP	1 ****	UNK
