# created with PyMOL 2.5.0
@<TRIPOS>MOLECULE
ZINC14969940
81 85 1                 
SMALL
USER_CHARGES
@<TRIPOS>ATOM
1	 H15	-13.570	207.870	112.120	 H	1	UNK0	0.000	
2	 H17	-12.770	204.290	112.450	 H	1	UNK0	0.000	
3	 H16	-14.350	204.250	113.240	 H	1	UNK0	0.000	
4	 H22	-6.130	210.520	113.650	 H	1	UNK0	0.000	
5	 H21	-4.780	208.040	112.500	 H	1	UNK0	0.000	
6	 H20	-6.740	206.890	112.380	 H	1	UNK0	0.000	
7	 H18	-12.890	204.190	114.220	 H	1	UNK0	0.000	
8	 H31	-9.080	209.490	112.090	 H	1	UNK0	0.000	
9	 H30	-7.860	210.490	112.820	 H	1	UNK0	0.000	
10	 H25	-5.590	206.930	114.280	 H	1	UNK0	0.000	
11	 H28	-6.280	209.770	110.960	 H	1	UNK0	0.000	
12	 H27	-6.850	206.720	115.500	 H	1	UNK0	0.000	
13	 H38	-18.840	204.570	112.200	 H	1	UNK0	0.000	
14	 H26	-5.410	207.650	115.870	 H	1	UNK0	0.000	
15	 H23	-8.030	210.330	115.380	 H	1	UNK0	0.000	
16	 H19	-7.430	208.140	111.330	 H	1	UNK0	0.000	
17	 H47	-2.970	210.100	112.940	 H	1	UNK0	0.000	
18	 H34	-19.030	206.940	111.310	 H	1	UNK0	0.000	
19	 H37	-18.120	205.110	113.720	 H	1	UNK0	0.000	
20	 H36	-17.250	203.940	112.730	 H	1	UNK0	0.000	
21	 H35	-17.050	205.650	110.910	 H	1	UNK0	0.000	
22	 H46	-4.200	211.180	112.990	 H	1	UNK0	0.000	
23	 H41	-5.030	211.140	115.890	 H	1	UNK0	0.000	
24	 H40	-3.470	210.400	116.300	 H	1	UNK0	0.000	
25	 H39	-3.800	208.730	114.440	 H	1	UNK0	0.000	
26	 H42	-4.930	209.490	116.530	 H	1	UNK0	0.000	
27	 H45	-3.220	212.160	114.990	 H	1	UNK0	0.000	
28	 H44	-2.130	212.120	113.590	 H	1	UNK0	0.000	
29	 H43	-1.960	210.890	114.910	 H	1	UNK0	0.000	
30	 H29	-9.270	210.010	113.760	 H	1	UNK0	0.000	
31	 H33	-17.650	208.030	111.510	 H	1	UNK0	0.000	
32	 H24	-6.900	209.660	116.540	 H	1	UNK0	0.000	
33	 H32	-18.490	207.400	112.920	 H	1	UNK0	0.000	
34	 H01	-14.220	207.770	114.440	 H	1	UNK0	0.000	
35	 H02	-14.450	205.030	115.740	 H	1	UNK0	0.000	
36	 H03	-14.810	206.590	116.440	 H	1	UNK0	0.000	
37	 H04	-12.550	206.080	117.250	 H	1	UNK0	0.000	
38	 H05	-9.760	205.790	115.740	 H	1	UNK0	0.000	
39	 H06	-10.380	206.860	116.970	 H	1	UNK0	0.000	
40	 H07	-10.270	208.680	114.970	 H	1	UNK0	0.000	
41	 H08	-8.340	206.440	114.180	 H	1	UNK0	0.000	
42	 H09	-9.210	206.800	111.920	 H	1	UNK0	0.000	
43	 H10	-10.320	208.020	112.500	 H	1	UNK0	0.000	
44	 H11	-10.340	205.210	113.610	 H	1	UNK0	0.000	
45	 H12	-11.190	205.670	112.140	 H	1	UNK0	0.000	
46	 H13	-11.930	207.750	113.700	 H	1	UNK0	0.000	
47	 H14	-12.910	206.440	111.320	 H	1	UNK0	0.000	
48	  C1	-15.900	206.300	112.570	C.2	1	UNK0	0.000	
49	  N1	-15.730	206.430	113.860	N.2	1	UNK0	0.000	
50	  C2	-14.360	206.690	114.350	C.3	1	UNK0	0.000	
51	  C3	-14.160	206.080	115.730	C.3	1	UNK0	0.000	
52	  C4	-12.740	206.210	116.190	C.2	1	UNK0	0.000	
53	  C5	-11.720	206.510	115.360	C.2	1	UNK0	0.000	
54	  C6	-10.330	206.710	115.890	C.3	1	UNK0	0.000	
55	  C7	-9.580	207.870	115.220	C.3	1	UNK0	0.000	
56	  C8	-8.850	207.380	113.950	C.3	1	UNK0	0.000	
57	  C9	-9.790	207.110	112.790	C.3	1	UNK0	0.000	
58	 C10	-10.810	206.040	113.090	C.3	1	UNK0	0.000	
59	 C11	-11.940	206.680	113.890	C.3	1	UNK0	0.000	
60	 C12	-13.300	206.160	113.410	C.3	1	UNK0	0.000	
61	 C13	-13.620	206.770	112.070	C.3	1	UNK0	0.000	
62	  O1	-14.920	206.410	111.630	O.3	1	UNK0	0.000	
63	 C14	-13.330	204.640	113.330	C.3	1	UNK0	0.000	
64	 C15	-7.820	208.400	113.480	C.3	1	UNK0	0.000	
65	 C16	-6.950	207.960	112.300	C.3	1	UNK0	0.000	
66	 C17	-5.620	208.740	112.480	C.3	1	UNK0	0.000	
67	 C18	-5.740	209.520	113.810	C.3	1	UNK0	0.000	
68	 C19	-6.800	208.710	114.590	C.3	1	UNK0	0.000	
69	 C20	-7.550	209.410	115.710	C.3	1	UNK0	0.000	
70	 C21	-8.590	208.450	116.220	C.2	1	UNK0	0.000	
71	  O2	-8.590	208.130	117.400	O.2	1	UNK0	0.000	
72	 C22	-6.130	207.440	115.090	C.3	1	UNK0	0.000	
73	  O3	-5.420	209.620	111.410	O.3	1	UNK0	0.000	
74	 C23	-8.550	209.660	113.020	C.3	1	UNK0	0.000	
75	 C24	-18.150	207.160	111.920	C.3	1	UNK0	0.000	
76	 C25	-17.230	205.960	111.940	C.3	1	UNK0	0.000	
77	 C26	-17.900	204.830	112.690	C.3	1	UNK0	0.000	
78	 C27	-4.360	209.670	114.450	C.3	1	UNK0	0.000	
79	 C28	-4.450	210.210	115.870	C.3	1	UNK0	0.000	
80	 C29	-2.650	211.520	114.330	C.3	1	UNK0	0.000	
81	  N2	-3.590	210.630	113.620	N.4	1	UNK0	0.000	
@<TRIPOS>BOND
1 48 49 2
2 48 62 1
3 48 76 1
4 49 50 1
5 34 50 1
6 50 51 1
7 50 60 1
8 35 51 1
9 36 51 1
10 51 52 1
11 37 52 1
12 52 53 2
13 53 54 1
14 53 59 1
15 38 54 1
16 39 54 1
17 54 55 1
18 40 55 1
19 55 56 1
20 55 70 1
21 41 56 1
22 56 57 1
23 56 64 1
24 42 57 1
25 43 57 1
26 57 58 1
27 44 58 1
28 45 58 1
29 58 59 1
30 46 59 1
31 59 60 1
32 60 61 1
33 60 63 1
34 1 61 1
35 47 61 1
36 61 62 1
37 2 63 1
38 3 63 1
39 7 63 1
40 64 65 1
41 64 68 1
42 64 74 1
43 6 65 1
44 16 65 1
45 65 66 1
46 5 66 1
47 66 67 1
48 66 73 1
49 4 67 1
50 67 68 1
51 67 78 1
52 68 69 1
53 68 72 1
54 15 69 1
55 32 69 1
56 69 70 1
57 70 71 2
58 10 72 1
59 12 72 1
60 14 72 1
61 11 73 1
62 8 74 1
63 9 74 1
64 30 74 1
65 18 75 1
66 31 75 1
67 33 75 1
68 75 76 1
69 21 76 1
70 76 77 1
71 13 77 1
72 19 77 1
73 20 77 1
74 25 78 1
75 78 79 1
76 78 81 1
77 23 79 1
78 24 79 1
79 26 79 1
80 27 80 1
81 28 80 1
82 29 80 1
83 80 81 1
84 17 81 1
85 22 81 1
@<TRIPOS>SUBSTRUCTURE
1	UNK0	1	GROUP	1 ****	UNK
