# created with PyMOL 2.5.0
@<TRIPOS>MOLECULE
ZINC14969940
81 85 1                 
SMALL
USER_CHARGES
@<TRIPOS>ATOM
1	 H15	-12.350	207.510	112.360	 H	1	UNK0	0.000	
2	 H17	-13.670	204.740	114.510	 H	1	UNK0	0.000	
3	 H16	-12.770	205.160	115.950	 H	1	UNK0	0.000	
4	 H22	-5.220	210.840	115.050	 H	1	UNK0	0.000	
5	 H21	-4.100	208.230	113.970	 H	1	UNK0	0.000	
6	 H20	-6.110	207.260	113.720	 H	1	UNK0	0.000	
7	 H18	-11.920	204.580	114.520	 H	1	UNK0	0.000	
8	 H31	-8.210	210.010	113.330	 H	1	UNK0	0.000	
9	 H30	-6.970	210.910	114.200	 H	1	UNK0	0.000	
10	 H25	-4.880	208.020	117.340	 H	1	UNK0	0.000	
11	 H28	-5.300	210.330	112.510	 H	1	UNK0	0.000	
12	 H27	-5.150	207.180	115.810	 H	1	UNK0	0.000	
13	 H38	-15.610	205.970	110.300	 H	1	UNK0	0.000	
14	 H26	-6.410	207.220	117.060	 H	1	UNK0	0.000	
15	 H23	-7.190	210.860	116.610	 H	1	UNK0	0.000	
16	 H19	-6.640	208.580	112.660	 H	1	UNK0	0.000	
17	 H47	-3.070	210.530	114.050	 H	1	UNK0	0.000	
18	 H34	-16.220	204.250	113.500	 H	1	UNK0	0.000	
19	 H37	-16.110	207.590	110.810	 H	1	UNK0	0.000	
20	 H36	-17.330	206.350	110.500	 H	1	UNK0	0.000	
21	 H35	-17.110	206.530	112.880	 H	1	UNK0	0.000	
22	 H46	-2.230	211.250	115.260	 H	1	UNK0	0.000	
23	 H41	-4.210	210.170	117.940	 H	1	UNK0	0.000	
24	 H40	-3.930	211.630	116.960	 H	1	UNK0	0.000	
25	 H39	-3.290	208.740	116.130	 H	1	UNK0	0.000	
26	 H42	-2.560	210.680	117.570	 H	1	UNK0	0.000	
27	 H45	-0.830	209.970	113.970	 H	1	UNK0	0.000	
28	 H44	-1.850	208.520	114.250	 H	1	UNK0	0.000	
29	 H43	-0.980	209.270	115.640	 H	1	UNK0	0.000	
30	 H29	-8.470	210.560	114.980	 H	1	UNK0	0.000	
31	 H33	-15.620	204.080	111.840	 H	1	UNK0	0.000	
32	 H24	-6.280	210.040	117.900	 H	1	UNK0	0.000	
33	 H32	-17.360	204.250	112.150	 H	1	UNK0	0.000	
34	 H01	-13.460	208.560	114.470	 H	1	UNK0	0.000	
35	 H02	-14.340	206.570	116.610	 H	1	UNK0	0.000	
36	 H03	-14.470	208.330	116.610	 H	1	UNK0	0.000	
37	 H04	-12.490	207.730	118.030	 H	1	UNK0	0.000	
38	 H05	-9.560	206.580	117.040	 H	1	UNK0	0.000	
39	 H06	-10.200	207.840	118.050	 H	1	UNK0	0.000	
40	 H07	-9.630	209.380	115.930	 H	1	UNK0	0.000	
41	 H08	-7.760	206.970	115.630	 H	1	UNK0	0.000	
42	 H09	-8.340	207.040	113.300	 H	1	UNK0	0.000	
43	 H10	-9.430	208.370	113.530	 H	1	UNK0	0.000	
44	 H11	-9.770	205.780	115.090	 H	1	UNK0	0.000	
45	 H12	-10.310	205.960	113.450	 H	1	UNK0	0.000	
46	 H13	-11.280	208.260	114.350	 H	1	UNK0	0.000	
47	 H14	-11.920	205.810	112.430	 H	1	UNK0	0.000	
48	  C1	-14.990	206.550	113.010	C.2	1	UNK0	0.000	
49	  N1	-15.000	207.190	114.140	N.2	1	UNK0	0.000	
50	  C2	-13.710	207.520	114.760	C.3	1	UNK0	0.000	
51	  C3	-13.830	207.500	116.270	C.3	1	UNK0	0.000	
52	  C4	-12.500	207.590	116.960	C.2	1	UNK0	0.000	
53	  C5	-11.330	207.480	116.290	C.2	1	UNK0	0.000	
54	  C6	-10.020	207.580	117.010	C.3	1	UNK0	0.000	
55	  C7	-9.050	208.560	116.340	C.3	1	UNK0	0.000	
56	  C8	-8.220	207.890	115.240	C.3	1	UNK0	0.000	
57	  C9	-9.000	207.490	114.020	C.3	1	UNK0	0.000	
58	 C10	-10.100	206.510	114.350	C.3	1	UNK0	0.000	
59	 C11	-11.320	207.270	114.810	C.3	1	UNK0	0.000	
60	 C12	-12.600	206.610	114.310	C.3	1	UNK0	0.000	
61	 C13	-12.620	206.560	112.800	C.3	1	UNK0	0.000	
62	  O1	-13.890	206.160	112.310	O.3	1	UNK0	0.000	
63	 C14	-12.750	205.200	114.860	C.3	1	UNK0	0.000	
64	 C15	-7.120	208.830	114.790	C.3	1	UNK0	0.000	
65	 C16	-6.230	208.350	113.650	C.3	1	UNK0	0.000	
66	 C17	-4.870	209.010	113.900	C.3	1	UNK0	0.000	
67	 C18	-4.960	209.790	115.230	C.3	1	UNK0	0.000	
68	 C19	-6.150	209.100	115.960	C.3	1	UNK0	0.000	
69	 C20	-6.910	209.890	117.000	C.3	1	UNK0	0.000	
70	 C21	-8.150	209.150	117.430	C.2	1	UNK0	0.000	
71	  O2	-8.530	209.230	118.590	O.2	1	UNK0	0.000	
72	 C22	-5.620	207.800	116.570	C.3	1	UNK0	0.000	
73	  O3	-4.470	209.910	112.860	O.3	1	UNK0	0.000	
74	 C23	-7.730	210.140	114.310	C.3	1	UNK0	0.000	
75	 C24	-16.370	204.590	112.470	C.3	1	UNK0	0.000	
76	 C25	-16.270	206.080	112.360	C.3	1	UNK0	0.000	
77	 C26	-16.330	206.520	110.900	C.3	1	UNK0	0.000	
78	 C27	-3.620	209.760	115.920	C.3	1	UNK0	0.000	
79	 C28	-3.570	210.620	117.160	C.3	1	UNK0	0.000	
80	 C29	-1.490	209.450	114.680	C.3	1	UNK0	0.000	
81	  N2	-2.600	210.320	114.950	N.4	1	UNK0	0.000	
@<TRIPOS>BOND
1 48 49 2
2 48 62 1
3 48 76 1
4 49 50 1
5 34 50 1
6 50 51 1
7 50 60 1
8 35 51 1
9 36 51 1
10 51 52 1
11 37 52 1
12 52 53 2
13 53 54 1
14 53 59 1
15 38 54 1
16 39 54 1
17 54 55 1
18 40 55 1
19 55 56 1
20 55 70 1
21 41 56 1
22 56 57 1
23 56 64 1
24 42 57 1
25 43 57 1
26 57 58 1
27 44 58 1
28 45 58 1
29 58 59 1
30 46 59 1
31 59 60 1
32 60 61 1
33 60 63 1
34 1 61 1
35 47 61 1
36 61 62 1
37 2 63 1
38 3 63 1
39 7 63 1
40 64 65 1
41 64 68 1
42 64 74 1
43 6 65 1
44 16 65 1
45 65 66 1
46 5 66 1
47 66 67 1
48 66 73 1
49 4 67 1
50 67 68 1
51 67 78 1
52 68 69 1
53 68 72 1
54 15 69 1
55 32 69 1
56 69 70 1
57 70 71 2
58 10 72 1
59 12 72 1
60 14 72 1
61 11 73 1
62 8 74 1
63 9 74 1
64 30 74 1
65 18 75 1
66 31 75 1
67 33 75 1
68 75 76 1
69 21 76 1
70 76 77 1
71 13 77 1
72 19 77 1
73 20 77 1
74 25 78 1
75 78 79 1
76 78 81 1
77 23 79 1
78 24 79 1
79 26 79 1
80 27 80 1
81 28 80 1
82 29 80 1
83 80 81 1
84 17 81 1
85 22 81 1
@<TRIPOS>SUBSTRUCTURE
1	UNK0	1	GROUP	1 ****	UNK
