step2_200_2000_5.0_40251.xyz.gro
  PyMOL2.5          3D                             0

 34 38  0  0  0  0  0  0  0  0999 V2000
  -15.5633  209.0256  111.3901 C   0  0  0  0  0  0  0  0  0  0  0  0
  -16.1234  208.7958  112.5401 N   0  0  0  0  0  0  0  0  0  0  0  0
  -15.1436  208.3558  113.5502 C   0  0  0  0  0  0  0  0  0  0  0  0
  -15.7237  208.1561  114.9402 C   0  0  0  0  0  0  0  0  0  0  0  0
  -14.6038  207.8061  115.8903 C   0  0  0  0  0  0  0  0  0  0  0  0
  -13.3738  207.4758  115.4804 C   0  0  0  0  0  0  0  0  0  0  0  0
  -12.3339  207.0758  116.4906 C   0  0  0  0  0  0  0  0  0  0  0  0
  -10.9938  207.7656  116.3006 C   0  0  0  0  0  0  0  0  0  0  0  0
  -10.1139  206.9754  115.3107 C   0  0  0  0  0  0  0  0  0  0  0  0
  -10.6138  206.9352  113.8807 C   0  0  0  0  0  0  0  0  0  0  0  0
  -11.9738  206.3254  113.7407 C   0  0  0  0  0  0  0  0  0  0  0  0
  -13.0237  207.3956  114.0005 C   0  0  0  0  0  0  0  0  0  0  0  0
  -14.2837  207.1557  113.1704 C   0  0  0  0  0  0  0  0  0  0  0  0
  -14.1036  207.2054  111.6504 C   0  0  0  0  0  0  0  0  0  0  0  0
  -14.3334  208.4954  111.0602 O   0  0  0  0  0  0  0  0  0  0  0  0
  -14.7739  205.7458  113.5806 C   0  0  0  0  0  0  0  0  0  0  0  0
   -8.7238  207.5752  115.3207 C   0  0  0  0  0  0  0  0  0  0  0  0
   -7.7238  206.9249  114.3709 C   0  0  0  0  0  0  0  0  0  0  0  0
   -6.3438  207.1448  115.0409 C   0  0  0  0  0  0  0  0  0  0  0  0
   -6.6138  207.8250  116.4008 C   0  0  0  0  0  0  0  0  0  0  0  0
   -8.0739  207.4253  116.7108 C   0  0  0  0  0  0  0  0  0  0  0  0
   -8.8538  208.2655  117.7106 C   0  0  0  0  0  0  0  0  0  0  0  0
  -10.3039  207.8557  117.6506 C   0  0  0  0  0  0  0  0  0  0  0  0
  -10.8940  207.6159  118.7006 O   0  0  0  0  0  0  0  0  0  0  0  0
   -8.0641  205.9753  117.1810 C   0  0  0  0  0  0  0  0  0  0  0  0
   -5.4737  207.9646  114.2809 O   0  0  0  0  0  0  0  0  0  0  0  0
   -8.7735  209.0351  114.8805 C   0  0  0  0  0  0  0  0  0  0  0  0
  -16.3430  211.2156  110.6197 C   0  0  0  0  0  0  0  0  0  0  0  0
  -16.1831  209.7555  110.2399 C   0  0  0  0  0  0  0  0  0  0  0  0
  -17.5232  209.1457  109.8699 C   0  0  0  0  0  0  0  0  0  0  0  0
   -5.5139  207.3950  117.3510 C   0  0  0  0  0  0  0  0  0  0  0  0
   -5.6739  207.9852  118.7309 C   0  0  0  0  0  0  0  0  0  0  0  0
   -3.0440  207.1046  117.0612 C   0  0  0  0  0  0  0  0  0  0  0  0
   -4.2438  207.9048  116.7610 N   0  0  0  0  0  0  0  0  0  0  0  0
  1  2  1  0  0  0  0
  1 15  1  0  0  0  0
  1 29  1  0  0  0  0
  2  3  1  0  0  0  0
  3  4  1  0  0  0  0
  3 13  1  0  0  0  0
  4  5  1  0  0  0  0
  5  6  1  0  0  0  0
  6  7  1  0  0  0  0
  6 12  1  0  0  0  0
  7  8  1  0  0  0  0
  8  9  1  0  0  0  0
  8 23  1  0  0  0  0
  9 10  1  0  0  0  0
  9 17  1  0  0  0  0
 10 11  1  0  0  0  0
 11 12  1  0  0  0  0
 12 13  1  0  0  0  0
 13 14  1  0  0  0  0
 13 16  1  0  0  0  0
 14 15  1  0  0  0  0
 17 18  1  0  0  0  0
 17 21  1  0  0  0  0
 17 27  1  0  0  0  0
 18 19  1  0  0  0  0
 19 20  1  0  0  0  0
 19 26  1  0  0  0  0
 20 21  1  0  0  0  0
 20 31  1  0  0  0  0
 21 22  1  0  0  0  0
 21 25  1  0  0  0  0
 22 23  1  0  0  0  0
 23 24  1  0  0  0  0
 28 29  1  0  0  0  0
 29 30  1  0  0  0  0
 31 32  1  0  0  0  0
 31 34  1  0  0  0  0
 33 34  1  0  0  0  0
M  END
$$$$
