# created with PyMOL 2.5.0
@<TRIPOS>MOLECULE
ZINC14969940
81 85 1                 
SMALL
USER_CHARGES
@<TRIPOS>ATOM
1	 H15	-11.710	207.200	112.450	 H	1	UNK0	0.000	
2	 H17	-12.010	204.510	115.090	 H	1	UNK0	0.000	
3	 H16	-13.680	204.980	114.820	 H	1	UNK0	0.000	
4	 H22	-4.020	208.680	115.760	 H	1	UNK0	0.000	
5	 H21	-3.460	205.690	115.870	 H	1	UNK0	0.000	
6	 H20	-5.620	205.140	115.410	 H	1	UNK0	0.000	
7	 H18	-12.840	205.530	116.260	 H	1	UNK0	0.000	
8	 H31	-6.810	207.980	113.680	 H	1	UNK0	0.000	
9	 H30	-5.360	208.660	114.350	 H	1	UNK0	0.000	
10	 H25	-4.860	206.750	118.780	 H	1	UNK0	0.000	
11	 H28	-3.780	207.130	113.540	 H	1	UNK0	0.000	
12	 H27	-5.000	205.550	117.490	 H	1	UNK0	0.000	
13	 H38	-15.210	203.940	113.050	 H	1	UNK0	0.000	
14	 H26	-6.440	206.170	118.280	 H	1	UNK0	0.000	
15	 H23	-6.130	209.660	116.830	 H	1	UNK0	0.000	
16	 H19	-5.550	206.050	113.900	 H	1	UNK0	0.000	
17	 H47	-0.830	207.440	116.960	 H	1	UNK0	0.000	
18	 H34	-17.230	206.940	111.240	 H	1	UNK0	0.000	
19	 H37	-16.030	204.940	114.230	 H	1	UNK0	0.000	
20	 H36	-16.960	204.240	112.900	 H	1	UNK0	0.000	
21	 H35	-15.480	205.610	111.310	 H	1	UNK0	0.000	
22	 H46	-1.770	207.390	115.580	 H	1	UNK0	0.000	
23	 H41	-3.760	208.620	119.050	 H	1	UNK0	0.000	
24	 H40	-3.160	209.790	117.860	 H	1	UNK0	0.000	
25	 H39	-2.820	206.750	117.780	 H	1	UNK0	0.000	
26	 H42	-2.020	208.890	118.890	 H	1	UNK0	0.000	
27	 H45	-0.410	209.200	115.480	 H	1	UNK0	0.000	
28	 H44	-0.990	209.770	117.100	 H	1	UNK0	0.000	
29	 H43	-2.140	209.720	115.690	 H	1	UNK0	0.000	
30	 H29	-6.930	209.170	114.980	 H	1	UNK0	0.000	
31	 H33	-16.790	207.790	112.720	 H	1	UNK0	0.000	
32	 H24	-5.650	209.100	118.430	 H	1	UNK0	0.000	
33	 H32	-17.790	206.310	112.750	 H	1	UNK0	0.000	
34	 H01	-12.750	208.580	113.980	 H	1	UNK0	0.000	
35	 H02	-14.110	207.500	116.480	 H	1	UNK0	0.000	
36	 H03	-13.800	209.160	116.010	 H	1	UNK0	0.000	
37	 H04	-12.190	208.540	117.800	 H	1	UNK0	0.000	
38	 H05	-9.700	206.480	117.670	 H	1	UNK0	0.000	
39	 H06	-10.010	208.100	118.210	 H	1	UNK0	0.000	
40	 H07	-8.600	208.750	116.010	 H	1	UNK0	0.000	
41	 H08	-7.680	205.910	116.700	 H	1	UNK0	0.000	
42	 H09	-7.880	205.440	114.350	 H	1	UNK0	0.000	
43	 H10	-8.490	207.050	114.010	 H	1	UNK0	0.000	
44	 H11	-9.930	205.220	115.950	 H	1	UNK0	0.000	
45	 H12	-10.120	205.120	114.210	 H	1	UNK0	0.000	
46	 H13	-10.430	207.760	114.360	 H	1	UNK0	0.000	
47	 H14	-11.410	205.490	112.760	 H	1	UNK0	0.000	
48	  C1	-14.460	206.570	112.910	C.2	1	UNK0	0.000	
49	  N1	-14.490	207.380	113.920	N.2	1	UNK0	0.000	
50	  C2	-13.180	207.730	114.530	C.3	1	UNK0	0.000	
51	  C3	-13.370	208.160	115.980	C.3	1	UNK0	0.000	
52	  C4	-12.120	208.130	116.800	C.2	1	UNK0	0.000	
53	  C5	-10.960	207.590	116.380	C.2	1	UNK0	0.000	
54	  C6	-9.780	207.500	117.310	C.3	1	UNK0	0.000	
55	  C7	-8.450	207.930	116.700	C.3	1	UNK0	0.000	
56	  C8	-7.730	206.750	116.010	C.3	1	UNK0	0.000	
57	  C9	-8.460	206.280	114.770	C.3	1	UNK0	0.000	
58	 C10	-9.870	205.810	115.020	C.3	1	UNK0	0.000	
59	 C11	-10.840	206.990	115.010	C.3	1	UNK0	0.000	
60	 C12	-12.200	206.570	114.450	C.3	1	UNK0	0.000	
61	 C13	-12.090	206.320	112.970	C.3	1	UNK0	0.000	
62	  O1	-13.340	205.970	112.400	O.3	1	UNK0	0.000	
63	 C14	-12.710	205.340	115.200	C.3	1	UNK0	0.000	
64	 C15	-6.300	207.170	115.630	C.3	1	UNK0	0.000	
65	 C16	-5.400	206.110	114.980	C.3	1	UNK0	0.000	
66	 C17	-3.960	206.530	115.370	C.3	1	UNK0	0.000	
67	 C18	-4.070	207.740	116.320	C.3	1	UNK0	0.000	
68	 C19	-5.500	207.590	116.890	C.3	1	UNK0	0.000	
69	 C20	-6.150	208.810	117.500	C.3	1	UNK0	0.000	
70	 C21	-7.570	208.450	117.830	C.2	1	UNK0	0.000	
71	  O2	-8.000	208.590	118.970	O.2	1	UNK0	0.000	
72	 C22	-5.450	206.450	117.910	C.3	1	UNK0	0.000	
73	  O3	-3.170	206.890	114.250	O.3	1	UNK0	0.000	
74	 C23	-6.360	208.310	114.620	C.3	1	UNK0	0.000	
75	 C24	-16.930	206.810	112.280	C.3	1	UNK0	0.000	
76	 C25	-15.710	205.910	112.330	C.3	1	UNK0	0.000	
77	 C26	-16.000	204.690	113.170	C.3	1	UNK0	0.000	
78	 C27	-2.900	207.720	117.300	C.3	1	UNK0	0.000	
79	 C28	-2.960	208.820	118.330	C.3	1	UNK0	0.000	
80	 C29	-1.270	209.260	116.170	C.3	1	UNK0	0.000	
81	  N2	-1.640	207.870	116.500	N.4	1	UNK0	0.000	
@<TRIPOS>BOND
1 48 49 2
2 48 62 1
3 48 76 1
4 49 50 1
5 34 50 1
6 50 51 1
7 50 60 1
8 35 51 1
9 36 51 1
10 51 52 1
11 37 52 1
12 52 53 2
13 53 54 1
14 53 59 1
15 38 54 1
16 39 54 1
17 54 55 1
18 40 55 1
19 55 56 1
20 55 70 1
21 41 56 1
22 56 57 1
23 56 64 1
24 42 57 1
25 43 57 1
26 57 58 1
27 44 58 1
28 45 58 1
29 58 59 1
30 46 59 1
31 59 60 1
32 60 61 1
33 60 63 1
34 1 61 1
35 47 61 1
36 61 62 1
37 2 63 1
38 3 63 1
39 7 63 1
40 64 65 1
41 64 68 1
42 64 74 1
43 6 65 1
44 16 65 1
45 65 66 1
46 5 66 1
47 66 67 1
48 66 73 1
49 4 67 1
50 67 68 1
51 67 78 1
52 68 69 1
53 68 72 1
54 15 69 1
55 32 69 1
56 69 70 1
57 70 71 2
58 10 72 1
59 12 72 1
60 14 72 1
61 11 73 1
62 8 74 1
63 9 74 1
64 30 74 1
65 18 75 1
66 31 75 1
67 33 75 1
68 75 76 1
69 21 76 1
70 76 77 1
71 13 77 1
72 19 77 1
73 20 77 1
74 25 78 1
75 78 79 1
76 78 81 1
77 23 79 1
78 24 79 1
79 26 79 1
80 27 80 1
81 28 80 1
82 29 80 1
83 80 81 1
84 17 81 1
85 22 81 1
@<TRIPOS>SUBSTRUCTURE
1	UNK0	1	GROUP	1 ****	UNK
