@<TRIPOS>MOLECULE
ZINC14969940
 34 38 0 0 0
SMALL
USER_CHARGES

@<TRIPOS>ATOM
      1 C1        -15.9000  206.6600  112.8700 C.2     1  UNK01       0.0000
      2 N1        -15.7100  206.8700  114.1500 N.2     1  UNK01       0.0000
      3 C2        -14.3200  207.0700  114.6100 C.3     1  UNK01       0.0000
      4 C3        -14.1700  206.5800  116.0500 C.3     1  UNK01       0.0000
      5 C4        -12.7500  206.6400  116.5100 C.2     1  UNK01       0.0000
      6 C5        -11.7100  206.8100  115.6800 C.2     1  UNK01       0.0000
      7 C6        -10.3100  206.8800  116.2400 C.3     1  UNK01       0.0000
      8 C7         -9.4100  207.9100  115.5700 C.3     1  UNK01       0.0000
      9 C8         -8.7100  207.2700  114.3500 C.3     1  UNK01       0.0000
     10 C9         -9.6400  207.0800  113.1600 C.3     1  UNK01       0.0000
     11 C10       -10.8000  206.1500  113.4400 C.3     1  UNK01       0.0000
     12 C11       -11.9000  206.9000  114.1900 C.3     1  UNK01       0.0000
     13 C12       -13.2800  206.4100  113.7400 C.3     1  UNK01       0.0000
     14 C13       -13.5800  206.9100  112.3400 C.3     1  UNK01       0.0000
     15 O1        -14.9100  206.5900  111.9400 O.2     1  UNK01       0.0000
     16 C14       -13.3800  204.8900  113.8000 C.3     1  UNK01       0.0000
     17 C15        -7.5300  208.1200  113.9100 C.3     1  UNK01       0.0000
     18 C16        -6.7000  207.5800  112.7300 C.3     1  UNK01       0.0000
     19 C17        -5.2400  208.0100  113.0300 C.3     1  UNK01       0.0000
     20 C18        -5.2700  208.8100  114.3500 C.3     1  UNK01       0.0000
     21 C19        -6.5100  208.2500  115.0600 C.3     1  UNK01       0.0000
     22 C20        -7.1400  209.1000  116.1400 C.3     1  UNK01       0.0000
     23 C21        -8.4000  208.4100  116.6100 C.2     1  UNK01       0.0000
     24 O2         -8.6100  208.3400  117.8100 O.2     1  UNK01       0.0000
     25 C22        -6.1300  206.8800  115.6300 C.3     1  UNK01       0.0000
     26 O3         -4.6400  208.7700  111.9900 O.3     1  UNK01       0.0000
     27 C23        -8.0200  209.4900  113.4700 C.3     1  UNK01       0.0000
     28 C24       -17.2900  206.0600  110.8200 C.3     1  UNK01       0.0000
     29 C25       -17.2700  206.3000  112.3100 C.3     1  UNK01       0.0000
     30 C26       -18.3100  207.3600  112.5900 C.3     1  UNK01       0.0000
     31 C27        -3.9200  208.6300  115.0600 C.3     1  UNK01       0.0000
     32 C28        -3.8300  209.4400  116.3400 C.3     1  UNK01       0.0000
     33 C29        -1.5500  208.4000  114.3000 C.3     1  UNK01       0.0000
     34 N2         -2.8800  209.0700  114.1500 N.4     1  UNK01       0.0000
@<TRIPOS>UNITY_ATOM_ATTR
34 1
charge 1
@<TRIPOS>BOND
     1     1     2    2
     2     1    15    1
     3     1    29    1
     4     2     3    1
     5     3     4    1
     6     3    13    1
     7     4     5    1
     8     5     6    2
     9     6     7    1
    10     6    12    1
    11     7     8    1
    12     8     9    1
    13     8    23    1
    14     9    10    1
    15     9    17    1
    16    10    11    1
    17    11    12    1
    18    12    13    1
    19    13    14    1
    20    13    16    1
    21    14    15    1
    22    17    18    1
    23    17    21    1
    24    17    27    1
    25    18    19    1
    26    19    20    1
    27    19    26    1
    28    20    21    1
    29    20    31    1
    30    21    22    1
    31    21    25    1
    32    22    23    1
    33    23    24    2
    34    28    29    1
    35    29    30    1
    36    31    32    1
    37    31    34    1
    38    33    34    1
