# created with PyMOL 2.5.0
@<TRIPOS>MOLECULE
ZINC14969940
81 85 1                 
SMALL
USER_CHARGES
@<TRIPOS>ATOM
1	 H15	-11.470	205.620	112.950	 H	1	UNK0	0.000	
2	 H17	-12.820	204.680	116.920	 H	1	UNK0	0.000	
3	 H16	-12.390	203.390	115.790	 H	1	UNK0	0.000	
4	 H22	-4.770	207.200	114.040	 H	1	UNK0	0.000	
5	 H21	-3.390	204.660	114.950	 H	1	UNK0	0.000	
6	 H20	-5.480	203.710	115.060	 H	1	UNK0	0.000	
7	 H18	-13.890	204.270	115.590	 H	1	UNK0	0.000	
8	 H31	-7.980	206.450	113.860	 H	1	UNK0	0.000	
9	 H30	-6.400	206.440	113.110	 H	1	UNK0	0.000	
10	 H25	-5.340	204.500	117.050	 H	1	UNK0	0.000	
11	 H28	-3.410	204.170	112.820	 H	1	UNK0	0.000	
12	 H27	-4.760	205.840	118.040	 H	1	UNK0	0.000	
13	 H38	-16.870	206.590	113.810	 H	1	UNK0	0.000	
14	 H26	-3.720	205.150	116.840	 H	1	UNK0	0.000	
15	 H23	-6.050	208.500	115.940	 H	1	UNK0	0.000	
16	 H19	-5.950	204.350	113.480	 H	1	UNK0	0.000	
17	 H47	-2.610	207.020	112.960	 H	1	UNK0	0.000	
18	 H34	-16.480	206.280	110.810	 H	1	UNK0	0.000	
19	 H37	-16.780	204.870	114.220	 H	1	UNK0	0.000	
20	 H36	-17.700	205.400	112.800	 H	1	UNK0	0.000	
21	 H35	-15.550	204.430	112.120	 H	1	UNK0	0.000	
22	 H46	-3.040	208.620	113.160	 H	1	UNK0	0.000	
23	 H41	-3.440	208.770	116.650	 H	1	UNK0	0.000	
24	 H40	-4.250	209.260	115.150	 H	1	UNK0	0.000	
25	 H39	-2.120	207.170	115.500	 H	1	UNK0	0.000	
26	 H42	-2.520	209.620	115.420	 H	1	UNK0	0.000	
27	 H45	-0.870	208.450	112.370	 H	1	UNK0	0.000	
28	 H44	-0.420	207.690	113.940	 H	1	UNK0	0.000	
29	 H43	-1.070	209.380	113.900	 H	1	UNK0	0.000	
30	 H29	-6.810	207.670	114.290	 H	1	UNK0	0.000	
31	 H33	-14.710	206.390	110.800	 H	1	UNK0	0.000	
32	 H24	-5.140	208.070	117.400	 H	1	UNK0	0.000	
33	 H32	-15.650	207.470	111.830	 H	1	UNK0	0.000	
34	 H01	-12.250	207.410	114.320	 H	1	UNK0	0.000	
35	 H02	-13.800	206.760	116.860	 H	1	UNK0	0.000	
36	 H03	-13.330	208.330	116.230	 H	1	UNK0	0.000	
37	 H04	-11.690	207.810	118.010	 H	1	UNK0	0.000	
38	 H05	-9.300	205.520	118.030	 H	1	UNK0	0.000	
39	 H06	-9.440	207.240	118.270	 H	1	UNK0	0.000	
40	 H07	-8.440	207.320	115.760	 H	1	UNK0	0.000	
41	 H08	-7.230	204.770	116.930	 H	1	UNK0	0.000	
42	 H09	-8.140	203.420	115.450	 H	1	UNK0	0.000	
43	 H10	-8.490	204.620	114.240	 H	1	UNK0	0.000	
44	 H11	-10.030	204.020	116.800	 H	1	UNK0	0.000	
45	 H12	-10.430	203.550	115.170	 H	1	UNK0	0.000	
46	 H13	-10.160	206.200	114.710	 H	1	UNK0	0.000	
47	 H14	-11.530	203.950	113.510	 H	1	UNK0	0.000	
48	  C1	-14.300	205.640	113.360	C.2	1	UNK0	0.000	
49	  N1	-14.170	206.580	114.250	N.2	1	UNK0	0.000	
50	  C2	-12.850	206.710	114.910	C.3	1	UNK0	0.000	
51	  C3	-13.010	207.290	116.310	C.3	1	UNK0	0.000	
52	  C4	-11.740	207.220	117.100	C.2	1	UNK0	0.000	
53	  C5	-10.670	206.480	116.730	C.2	1	UNK0	0.000	
54	  C6	-9.400	206.470	117.500	C.3	1	UNK0	0.000	
55	  C7	-8.180	206.650	116.580	C.3	1	UNK0	0.000	
56	  C8	-7.570	205.340	116.060	C.3	1	UNK0	0.000	
57	  C9	-8.520	204.420	115.310	C.3	1	UNK0	0.000	
58	 C10	-9.970	204.350	115.760	C.3	1	UNK0	0.000	
59	 C11	-10.700	205.650	115.490	C.3	1	UNK0	0.000	
60	 C12	-12.110	205.390	114.990	C.3	1	UNK0	0.000	
61	 C13	-12.040	204.920	113.560	C.3	1	UNK0	0.000	
62	  O1	-13.320	204.760	112.970	O.3	1	UNK0	0.000	
63	 C14	-12.850	204.380	115.870	C.3	1	UNK0	0.000	
64	 C15	-6.370	205.710	115.160	C.3	1	UNK0	0.000	
65	 C16	-5.520	204.610	114.450	C.3	1	UNK0	0.000	
66	 C17	-4.080	205.210	114.320	C.3	1	UNK0	0.000	
67	 C18	-4.230	206.670	114.820	C.3	1	UNK0	0.000	
68	 C19	-5.270	206.450	115.970	C.3	1	UNK0	0.000	
69	 C20	-5.840	207.690	116.650	C.3	1	UNK0	0.000	
70	 C21	-7.110	207.350	117.370	C.2	1	UNK0	0.000	
71	  O2	-7.320	207.780	118.500	O.2	1	UNK0	0.000	
72	 C22	-4.760	205.430	117.020	C.3	1	UNK0	0.000	
73	  O3	-3.560	205.140	112.990	O.3	1	UNK0	0.000	
74	 C23	-6.920	206.620	114.050	C.3	1	UNK0	0.000	
75	 C24	-15.600	206.460	111.430	C.3	1	UNK0	0.000	
76	 C25	-15.550	205.440	112.550	C.3	1	UNK0	0.000	
77	 C26	-16.800	205.590	113.400	C.3	1	UNK0	0.000	
78	 C27	-2.960	207.560	114.950	C.3	1	UNK0	0.000	
79	 C28	-3.310	208.880	115.580	C.3	1	UNK0	0.000	
80	 C29	-1.100	208.390	113.430	C.3	1	UNK0	0.000	
81	  N2	-2.470	207.840	113.560	N.4	1	UNK0	0.000	
@<TRIPOS>BOND
1 48 49 2
2 48 62 1
3 48 76 1
4 49 50 1
5 34 50 1
6 50 51 1
7 50 60 1
8 35 51 1
9 36 51 1
10 51 52 1
11 37 52 1
12 52 53 2
13 53 54 1
14 53 59 1
15 38 54 1
16 39 54 1
17 54 55 1
18 40 55 1
19 55 56 1
20 55 70 1
21 41 56 1
22 56 57 1
23 56 64 1
24 42 57 1
25 43 57 1
26 57 58 1
27 44 58 1
28 45 58 1
29 58 59 1
30 46 59 1
31 59 60 1
32 60 61 1
33 60 63 1
34 1 61 1
35 47 61 1
36 61 62 1
37 2 63 1
38 3 63 1
39 7 63 1
40 64 65 1
41 64 68 1
42 64 74 1
43 6 65 1
44 16 65 1
45 65 66 1
46 5 66 1
47 66 67 1
48 66 73 1
49 4 67 1
50 67 68 1
51 67 78 1
52 68 69 1
53 68 72 1
54 15 69 1
55 32 69 1
56 69 70 1
57 70 71 2
58 10 72 1
59 12 72 1
60 14 72 1
61 11 73 1
62 8 74 1
63 9 74 1
64 30 74 1
65 18 75 1
66 31 75 1
67 33 75 1
68 75 76 1
69 21 76 1
70 76 77 1
71 13 77 1
72 19 77 1
73 20 77 1
74 25 78 1
75 78 79 1
76 78 81 1
77 23 79 1
78 24 79 1
79 26 79 1
80 27 80 1
81 28 80 1
82 29 80 1
83 80 81 1
84 17 81 1
85 22 81 1
@<TRIPOS>SUBSTRUCTURE
1	UNK0	1	GROUP	1 ****	UNK
