@<TRIPOS>MOLECULE
ZINC14969940
 34 38 0 0 0
SMALL
USER_CHARGES

@<TRIPOS>ATOM
      1 C1        -17.0900  209.6200  113.6000 C.2     1  UNK01       0.0000
      2 N1        -16.8400  208.4500  114.2300 N.2     1  UNK01       0.0000
      3 C2        -15.3300  208.0700  114.7400 C.3     1  UNK01       0.0000
      4 C3        -14.8600  206.6800  115.3500 C.3     1  UNK01       0.0000
      5 C4        -13.3400  206.3000  115.3100 C.2     1  UNK01       0.0000
      6 C5        -12.4000  206.9300  114.5900 C.2     1  UNK01       0.0000
      7 C6        -10.9400  206.4800  114.4400 C.3     1  UNK01       0.0000
      8 C7         -9.9600  207.6800  114.5800 C.3     1  UNK01       0.0000
      9 C8         -9.8000  208.3200  113.2500 C.3     1  UNK01       0.0000
     10 C9        -10.9800  209.2800  112.9300 C.3     1  UNK01       0.0000
     11 C10       -12.1800  208.4600  112.5800 C.3     1  UNK01       0.0000
     12 C11       -12.8800  208.1500  113.8900 C.3     1  UNK01       0.0000
     13 C12       -14.3800  208.1600  113.6100 C.3     1  UNK01       0.0000
     14 C13       -14.6500  209.6600  113.3900 C.3     1  UNK01       0.0000
     15 O1        -15.9800  210.2500  113.2600 O.2     1  UNK01       0.0000
     16 C14       -14.6200  206.8200  112.8300 C.3     1  UNK01       0.0000
     17 C15        -8.1600  209.1800  113.0900 C.3     1  UNK01       0.0000
     18 C16        -7.7400  210.3700  111.7500 C.3     1  UNK01       0.0000
     19 C17        -5.9600  210.5100  112.0300 C.3     1  UNK01       0.0000
     20 C18        -5.9800  209.2700  112.4700 C.3     1  UNK01       0.0000
     21 C19        -6.4900  208.6800  113.7000 C.3     1  UNK01       0.0000
     22 C20        -7.4400  208.5000  114.9400 C.3     1  UNK01       0.0000
     23 C21        -8.5200  207.3400  114.9100 C.2     1  UNK01       0.0000
     24 O2         -8.1600  206.1600  114.9100 O.2     1  UNK01       0.0000
     25 C22        -6.0500  207.2300  113.5700 C.3     1  UNK01       0.0000
     26 O3         -4.3500  209.2100  112.0700 O.3     1  UNK01       0.0000
     27 C23        -8.8100  209.4800  112.0200 C.3     1  UNK01       0.0000
     28 C24       -19.0900  210.9200  110.6700 C.3     1  UNK01       0.0000
     29 C25       -18.5700  210.5300  112.5200 C.3     1  UNK01       0.0000
     30 C26       -18.6000  211.9600  113.0000 C.3     1  UNK01       0.0000
     31 C27        -6.1600  208.5300  110.9300 C.3     1  UNK01       0.0000
     32 C28        -5.6100  207.1200  110.8000 C.3     1  UNK01       0.0000
     33 C29        -5.7900  210.4500  109.0100 C.3     1  UNK01       0.0000
     34 N2         -5.4100  209.2200  109.7500 N.4     1  UNK01       0.0000
@<TRIPOS>UNITY_ATOM_ATTR
34 1
charge 1
@<TRIPOS>BOND
     1     1     2    2
     2     1    15    1
     3     1    29    1
     4     2     3    1
     5     3     4    1
     6     3    13    1
     7     4     5    1
     8     5     6    2
     9     6     7    1
    10     6    12    1
    11     7     8    1
    12     8     9    1
    13     8    23    1
    14     9    10    1
    15     9    17    1
    16    10    11    1
    17    11    12    1
    18    12    13    1
    19    13    14    1
    20    13    16    1
    21    14    15    1
    22    17    18    1
    23    17    21    1
    24    17    27    1
    25    18    19    1
    26    19    20    1
    27    19    26    1
    28    20    21    1
    29    20    31    1
    30    21    22    1
    31    21    25    1
    32    22    23    1
    33    23    24    2
    34    28    29    1
    35    29    30    1
    36    31    32    1
    37    31    34    1
    38    33    34    1
