# created with PyMOL 2.5.0
@<TRIPOS>MOLECULE
ZINC14969940
81 85 1                 
SMALL
USER_CHARGES
@<TRIPOS>ATOM
1	 H15	-12.350	209.610	111.610	 H	1	UNK0	0.000	
2	 H17	-11.970	206.070	112.730	 H	1	UNK0	0.000	
3	 H16	-13.730	206.280	112.760	 H	1	UNK0	0.000	
4	 H22	-4.730	210.980	115.820	 H	1	UNK0	0.000	
5	 H21	-3.730	208.540	114.370	 H	1	UNK0	0.000	
6	 H20	-5.690	207.690	114.240	 H	1	UNK0	0.000	
7	 H18	-12.820	206.230	114.260	 H	1	UNK0	0.000	
8	 H31	-8.180	209.700	112.800	 H	1	UNK0	0.000	
9	 H30	-8.170	209.660	114.120	 H	1	UNK0	0.000	
10	 H25	-5.540	208.400	117.880	 H	1	UNK0	0.000	
11	 H28	-3.880	208.780	112.740	 H	1	UNK0	0.000	
12	 H27	-5.380	207.500	116.360	 H	1	UNK0	0.000	
13	 H38	-17.280	206.200	110.810	 H	1	UNK0	0.000	
14	 H26	-6.930	207.680	117.130	 H	1	UNK0	0.000	
15	 H23	-7.180	211.620	116.510	 H	1	UNK0	0.000	
16	 H19	-5.950	208.810	112.840	 H	1	UNK0	0.000	
17	 H47	-3.570	207.980	117.870	 H	1	UNK0	0.000	
18	 H34	-17.250	209.900	111.260	 H	1	UNK0	0.000	
19	 H37	-16.680	206.490	112.450	 H	1	UNK0	0.000	
20	 H36	-15.570	205.960	111.180	 H	1	UNK0	0.000	
21	 H35	-15.990	208.100	109.950	 H	1	UNK0	0.000	
22	 H46	-3.240	207.830	116.240	 H	1	UNK0	0.000	
23	 H41	-4.660	209.900	118.770	 H	1	UNK0	0.000	
24	 H40	-4.340	211.460	118.020	 H	1	UNK0	0.000	
25	 H39	-2.820	210.280	116.340	 H	1	UNK0	0.000	
26	 H42	-3.020	210.550	118.770	 H	1	UNK0	0.000	
27	 H45	-1.170	208.760	116.350	 H	1	UNK0	0.000	
28	 H44	-1.300	207.530	117.640	 H	1	UNK0	0.000	
29	 H43	-1.460	209.270	118.070	 H	1	UNK0	0.000	
30	 H29	-8.590	208.940	114.290	 H	1	UNK0	0.000	
31	 H33	-17.640	208.670	112.440	 H	1	UNK0	0.000	
32	 H24	-6.700	210.600	117.950	 H	1	UNK0	0.000	
33	 H32	-18.250	208.510	110.810	 H	1	UNK0	0.000	
34	 H01	-13.460	209.910	113.810	 H	1	UNK0	0.000	
35	 H02	-14.440	207.420	115.240	 H	1	UNK0	0.000	
36	 H03	-14.580	209.110	115.720	 H	1	UNK0	0.000	
37	 H04	-12.750	208.240	117.040	 H	1	UNK0	0.000	
38	 H05	-9.830	207.340	116.220	 H	1	UNK0	0.000	
39	 H06	-10.550	208.520	117.290	 H	1	UNK0	0.000	
40	 H07	-9.620	210.210	115.300	 H	1	UNK0	0.000	
41	 H08	-8.050	207.600	115.140	 H	1	UNK0	0.000	
42	 H09	-7.980	207.770	112.720	 H	1	UNK0	0.000	
43	 H10	-9.260	209.900	113.200	 H	1	UNK0	0.000	
44	 H11	-9.980	206.770	113.990	 H	1	UNK0	0.000	
45	 H12	-10.270	207.370	112.370	 H	1	UNK0	0.000	
46	 H13	-11.070	209.550	113.690	 H	1	UNK0	0.000	
47	 H14	-11.780	208.010	111.150	 H	1	UNK0	0.000	
48	  C1	-14.930	208.510	111.770	C.2	1	UNK0	0.000	
49	  N1	-14.990	208.720	113.040	N.2	1	UNK0	0.000	
50	  C2	-13.730	208.850	113.780	C.3	1	UNK0	0.000	
51	  C3	-13.940	208.390	115.210	C.3	1	UNK0	0.000	
52	  C4	-12.660	208.320	115.960	C.2	1	UNK0	0.000	
53	  C5	-11.460	208.380	115.380	C.2	1	UNK0	0.000	
54	  C6	-10.250	208.360	116.250	C.3	1	UNK0	0.000	
55	  C7	-9.180	209.350	115.800	C.3	1	UNK0	0.000	
56	  C8	-8.250	208.070	115.190	C.3	1	UNK0	0.000	
57	  C9	-9.200	207.850	113.860	C.3	1	UNK0	0.000	
58	 C10	-10.110	207.680	113.400	C.3	1	UNK0	0.000	
59	 C11	-11.290	208.500	113.890	C.3	1	UNK0	0.000	
60	 C12	-12.580	208.100	113.150	C.3	1	UNK0	0.000	
61	 C13	-12.550	208.540	111.700	C.3	1	UNK0	0.000	
62	  O1	-13.790	208.290	111.050	O.3	1	UNK0	0.000	
63	 C14	-12.790	206.590	113.230	C.3	1	UNK0	0.000	
64	 C15	-7.790	208.210	114.310	C.3	1	UNK0	0.000	
65	 C16	-5.810	208.710	113.960	C.3	1	UNK0	0.000	
66	 C17	-4.680	207.880	114.260	C.3	1	UNK0	0.000	
67	 C18	-4.780	209.890	115.830	C.3	1	UNK0	0.000	
68	 C19	-6.280	209.500	116.140	C.3	1	UNK0	0.000	
69	 C20	-7.620	210.160	117.890	C.3	1	UNK0	0.000	
70	 C21	-8.500	209.890	117.060	C.2	1	UNK0	0.000	
71	  O2	-8.920	209.610	118.160	O.2	1	UNK0	0.000	
72	 C22	-5.990	208.210	116.910	C.3	1	UNK0	0.000	
73	  O3	-3.960	207.830	113.000	O.3	1	UNK0	0.000	
74	 C23	-8.750	208.770	112.810	C.3	1	UNK0	0.000	
75	 C24	-17.390	208.830	111.400	C.3	1	UNK0	0.000	
76	 C25	-16.160	208.030	111.020	C.3	1	UNK0	0.000	
77	 C26	-16.430	206.590	111.390	C.3	1	UNK0	0.000	
78	 C27	-3.640	209.790	116.840	C.3	1	UNK0	0.000	
79	 C28	-3.930	210.460	118.180	C.3	1	UNK0	0.000	
80	 C29	-1.640	208.510	117.300	C.3	1	UNK0	0.000	
81	  N2	-3.110	208.420	117.060	N.4	1	UNK0	0.000	
@<TRIPOS>BOND
1 48 49 2
2 48 62 1
3 48 76 1
4 49 50 1
5 34 50 1
6 50 51 1
7 50 60 1
8 35 51 1
9 36 51 1
10 51 52 1
11 37 52 1
12 52 53 2
13 53 54 1
14 53 59 1
15 38 54 1
16 39 54 1
17 54 55 1
18 40 55 1
19 55 56 1
20 55 70 1
21 41 56 1
22 56 57 1
23 56 64 1
24 42 57 1
25 43 57 1
26 57 58 1
27 44 58 1
28 45 58 1
29 58 59 1
30 46 59 1
31 59 60 1
32 60 61 1
33 60 63 1
34 1 61 1
35 47 61 1
36 61 62 1
37 2 63 1
38 3 63 1
39 7 63 1
40 64 65 1
41 64 68 1
42 64 74 1
43 6 65 1
44 16 65 1
45 65 66 1
46 5 66 1
47 66 67 1
48 66 73 1
49 4 67 1
50 67 68 1
51 67 78 1
52 68 69 1
53 68 72 1
54 15 69 1
55 32 69 1
56 69 70 1
57 70 71 2
58 10 72 1
59 12 72 1
60 14 72 1
61 11 73 1
62 8 74 1
63 9 74 1
64 30 74 1
65 18 75 1
66 31 75 1
67 33 75 1
68 75 76 1
69 21 76 1
70 76 77 1
71 13 77 1
72 19 77 1
73 20 77 1
74 25 78 1
75 78 79 1
76 78 81 1
77 23 79 1
78 24 79 1
79 26 79 1
80 27 80 1
81 28 80 1
82 29 80 1
83 80 81 1
84 17 81 1
85 22 81 1
@<TRIPOS>SUBSTRUCTURE
1	UNK0	1	GROUP	1 ****	UNK
