step1_200.xyz.gro
  PyMOL2.5          3D                             0

 34 38  0  0  0  0  0  0  0  0999 V2000
  -16.9801  206.3398  112.4297 C   0  0  0  0  0  0  0  0  0  0  0  0
  -16.7101  206.7098  113.6297 N   0  0  0  0  0  0  0  0  0  0  0  0
  -15.3001  206.9298  113.9897 C   0  0  0  0  0  0  0  0  0  0  0  0
  -15.1201  206.6598  115.4697 C   0  0  0  0  0  0  0  0  0  0  0  0
  -13.6801  206.6697  115.8497 C   0  0  0  0  0  0  0  0  0  0  0  0
  -12.6801  206.6497  114.9597 C   0  0  0  0  0  0  0  0  0  0  0  0
  -11.2801  206.7197  115.4797 C   0  0  0  0  0  0  0  0  0  0  0  0
  -10.3901  207.6397  114.6397 C   0  0  0  0  0  0  0  0  0  0  0  0
   -9.7201  206.7897  113.5397 C   0  0  0  0  0  0  0  0  0  0  0  0
  -10.6701  206.4998  112.3897 C   0  0  0  0  0  0  0  0  0  0  0  0
  -11.8801  205.6798  112.8097 C   0  0  0  0  0  0  0  0  0  0  0  0
  -12.9101  206.5697  113.4797 C   0  0  0  0  0  0  0  0  0  0  0  0
  -14.3401  206.0898  113.1697 C   0  0  0  0  0  0  0  0  0  0  0  0
  -14.7101  206.3398  111.7297 C   0  0  0  0  0  0  0  0  0  0  0  0
  -16.0701  206.0098  111.4597 O   0  0  0  0  0  0  0  0  0  0  0  0
  -14.4901  204.5997  113.4797 C   0  0  0  0  0  0  0  0  0  0  0  0
   -8.4801  207.5097  113.0297 C   0  0  0  0  0  0  0  0  0  0  0  0
   -7.6201  206.7397  112.0197 C   0  0  0  0  0  0  0  0  0  0  0  0
   -6.2401  207.3697  112.0697 C   0  0  0  0  0  0  0  0  0  0  0  0
   -6.1601  208.1397  113.4297 C   0  0  0  0  0  0  0  0  0  0  0  0
   -7.5101  207.8097  114.1697 C   0  0  0  0  0  0  0  0  0  0  0  0
   -8.1301  208.8997  115.0297 C   0  0  0  0  0  0  0  0  0  0  0  0
   -9.4201  208.3397  115.5897 C   0  0  0  0  0  0  0  0  0  0  0  0
   -9.5201  208.1997  116.7897 O   0  0  0  0  0  0  0  0  0  0  0  0
   -7.3701  206.5697  115.0497 C   0  0  0  0  0  0  0  0  0  0  0  0
   -6.0201  208.0997  110.8897 O   0  0  0  0  0  0  0  0  0  0  0  0
   -8.9101  208.7897  112.3497 C   0  0  0  0  0  0  0  0  0  0  0  0
  -18.8601  207.6398  111.4197 C   0  0  0  0  0  0  0  0  0  0  0  0
  -18.4001  206.2898  111.9297 C   0  0  0  0  0  0  0  0  0  0  0  0
  -19.3701  205.8198  112.9797 C   0  0  0  0  0  0  0  0  0  0  0  0
   -4.9301  207.7697  114.2597 C   0  0  0  0  0  0  0  0  0  0  0  0
   -4.0701  208.9797  114.5397 C   0  0  0  0  0  0  0  0  0  0  0  0
   -3.3101  205.8697  114.5197 C   0  0  0  0  0  0  0  0  0  0  0  0
   -4.0601  206.7497  113.5997 N   0  0  0  0  0  0  0  0  0  0  0  0
  1  2  1  0  0  0  0
  1 15  1  0  0  0  0
  1 29  1  0  0  0  0
  2  3  1  0  0  0  0
  3  4  1  0  0  0  0
  3 13  1  0  0  0  0
  4  5  1  0  0  0  0
  5  6  1  0  0  0  0
  6  7  1  0  0  0  0
  6 12  1  0  0  0  0
  7  8  1  0  0  0  0
  8  9  1  0  0  0  0
  8 23  1  0  0  0  0
  9 10  1  0  0  0  0
  9 17  1  0  0  0  0
 10 11  1  0  0  0  0
 11 12  1  0  0  0  0
 12 13  1  0  0  0  0
 13 14  1  0  0  0  0
 13 16  1  0  0  0  0
 14 15  1  0  0  0  0
 17 18  1  0  0  0  0
 17 21  1  0  0  0  0
 17 27  1  0  0  0  0
 18 19  1  0  0  0  0
 19 20  1  0  0  0  0
 19 26  1  0  0  0  0
 20 21  1  0  0  0  0
 20 31  1  0  0  0  0
 21 22  1  0  0  0  0
 21 25  1  0  0  0  0
 22 23  1  0  0  0  0
 23 24  1  0  0  0  0
 28 29  1  0  0  0  0
 29 30  1  0  0  0  0
 31 32  1  0  0  0  0
 31 34  1  0  0  0  0
 33 34  1  0  0  0  0
M  END
$$$$
