# created with PyMOL 2.5.0
@<TRIPOS>MOLECULE
ZINC14969940
81 85 1                 
SMALL
USER_CHARGES
@<TRIPOS>ATOM
1	 H15	-13.730	207.720	111.870	 H	1	UNK0	0.000	
2	 H17	-14.650	205.000	114.390	 H	1	UNK0	0.000	
3	 H16	-13.340	205.420	115.490	 H	1	UNK0	0.000	
4	 H22	-5.760	210.140	112.690	 H	1	UNK0	0.000	
5	 H21	-5.050	207.240	112.250	 H	1	UNK0	0.000	
6	 H20	-7.190	206.560	112.470	 H	1	UNK0	0.000	
7	 H18	-12.970	204.710	113.920	 H	1	UNK0	0.000	
8	 H31	-8.890	210.430	112.960	 H	1	UNK0	0.000	
9	 H30	-9.090	209.370	111.570	 H	1	UNK0	0.000	
10	 H25	-5.650	208.110	115.790	 H	1	UNK0	0.000	
11	 H28	-5.690	209.530	110.750	 H	1	UNK0	0.000	
12	 H27	-5.960	206.930	114.490	 H	1	UNK0	0.000	
13	 H38	-17.960	205.180	114.200	 H	1	UNK0	0.000	
14	 H26	-7.210	207.390	115.640	 H	1	UNK0	0.000	
15	 H23	-7.510	210.940	114.360	 H	1	UNK0	0.000	
16	 H19	-7.670	207.610	111.140	 H	1	UNK0	0.000	
17	 H47	-4.300	207.730	115.080	 H	1	UNK0	0.000	
18	 H34	-19.020	207.370	113.520	 H	1	UNK0	0.000	
19	 H37	-17.310	204.200	112.910	 H	1	UNK0	0.000	
20	 H36	-18.990	204.770	112.840	 H	1	UNK0	0.000	
21	 H35	-17.440	206.070	111.320	 H	1	UNK0	0.000	
22	 H46	-3.490	207.200	113.750	 H	1	UNK0	0.000	
23	 H41	-3.510	210.370	111.920	 H	1	UNK0	0.000	
24	 H40	-3.180	208.630	111.820	 H	1	UNK0	0.000	
25	 H39	-4.060	210.080	114.390	 H	1	UNK0	0.000	
26	 H42	-2.160	209.660	112.810	 H	1	UNK0	0.000	
27	 H45	-1.570	208.450	114.290	 H	1	UNK0	0.000	
28	 H44	-2.130	207.450	115.670	 H	1	UNK0	0.000	
29	 H43	-2.480	209.210	115.670	 H	1	UNK0	0.000	
30	 H29	-7.570	210.180	111.810	 H	1	UNK0	0.000	
31	 H33	-19.350	207.260	111.810	 H	1	UNK0	0.000	
32	 H24	-6.540	210.330	115.710	 H	1	UNK0	0.000	
33	 H32	-18.110	208.380	112.400	 H	1	UNK0	0.000	
34	 H01	-14.400	208.720	113.950	 H	1	UNK0	0.000	
35	 H02	-14.790	206.920	116.390	 H	1	UNK0	0.000	
36	 H03	-15.050	208.660	116.260	 H	1	UNK0	0.000	
37	 H04	-12.820	208.370	117.290	 H	1	UNK0	0.000	
38	 H05	-10.110	207.200	116.150	 H	1	UNK0	0.000	
39	 H06	-10.600	208.720	116.830	 H	1	UNK0	0.000	
40	 H07	-10.190	209.650	114.360	 H	1	UNK0	0.000	
41	 H08	-8.670	207.000	114.460	 H	1	UNK0	0.000	
42	 H09	-9.480	206.640	112.220	 H	1	UNK0	0.000	
43	 H10	-10.450	208.090	112.290	 H	1	UNK0	0.000	
44	 H11	-10.720	205.910	114.390	 H	1	UNK0	0.000	
45	 H12	-11.500	205.810	112.830	 H	1	UNK0	0.000	
46	 H13	-12.180	208.330	113.390	 H	1	UNK0	0.000	
47	 H14	-13.170	206.050	111.820	 H	1	UNK0	0.000	
48	  C1	-16.160	206.700	112.900	C.2	1	UNK0	0.000	
49	  N1	-15.990	207.340	114.020	N.2	1	UNK0	0.000	
50	  C2	-14.610	207.720	114.380	C.3	1	UNK0	0.000	
51	  C3	-14.430	207.830	115.880	C.3	1	UNK0	0.000	
52	  C4	-13.010	208.080	116.270	C.2	1	UNK0	0.000	
53	  C5	-11.960	207.920	115.420	C.2	1	UNK0	0.000	
54	  C6	-10.560	208.170	115.900	C.3	1	UNK0	0.000	
55	  C7	-9.640	208.870	114.890	C.3	1	UNK0	0.000	
56	  C8	-9.030	207.860	113.900	C.3	1	UNK0	0.000	
57	  C9	-10.020	207.300	112.900	C.3	1	UNK0	0.000	
58	 C10	-11.100	206.500	113.570	C.3	1	UNK0	0.000	
59	 C11	-12.210	207.450	114.030	C.3	1	UNK0	0.000	
60	 C12	-13.560	206.790	113.800	C.3	1	UNK0	0.000	
61	 C13	-13.860	206.740	112.330	C.3	1	UNK0	0.000	
62	  O1	-15.170	206.280	112.050	O.3	1	UNK0	0.000	
63	 C14	-13.640	205.410	114.440	C.3	1	UNK0	0.000	
64	 C15	-7.870	208.490	113.140	C.3	1	UNK0	0.000	
65	 C16	-7.180	207.590	112.120	C.3	1	UNK0	0.000	
66	 C17	-5.720	208.080	112.070	C.3	1	UNK0	0.000	
67	 C18	-5.570	209.180	113.150	C.3	1	UNK0	0.000	
68	 C19	-6.760	208.900	114.120	C.3	1	UNK0	0.000	
69	 C20	-7.280	210.050	114.960	C.3	1	UNK0	0.000	
70	 C21	-8.540	209.590	115.680	C.2	1	UNK0	0.000	
71	  O2	-8.710	209.890	116.850	O.2	1	UNK0	0.000	
72	 C22	-6.380	207.770	115.050	C.3	1	UNK0	0.000	
73	  O3	-5.420	208.570	110.760	O.3	1	UNK0	0.000	
74	 C23	-8.380	209.690	112.340	C.3	1	UNK0	0.000	
75	 C24	-18.550	207.390	112.540	C.3	1	UNK0	0.000	
76	 C25	-17.520	206.290	112.390	C.3	1	UNK0	0.000	
77	 C26	-17.980	205.030	113.120	C.3	1	UNK0	0.000	
78	 C27	-4.120	209.280	113.660	C.3	1	UNK0	0.000	
79	 C28	-3.190	209.500	112.490	C.3	1	UNK0	0.000	
80	 C29	-2.350	208.320	115.050	C.3	1	UNK0	0.000	
81	  N2	-3.640	208.040	114.370	N.4	1	UNK0	0.000	
@<TRIPOS>BOND
1 48 49 2
2 48 62 1
3 48 76 1
4 49 50 1
5 34 50 1
6 50 51 1
7 50 60 1
8 35 51 1
9 36 51 1
10 51 52 1
11 37 52 1
12 52 53 2
13 53 54 1
14 53 59 1
15 38 54 1
16 39 54 1
17 54 55 1
18 40 55 1
19 55 56 1
20 55 70 1
21 41 56 1
22 56 57 1
23 56 64 1
24 42 57 1
25 43 57 1
26 57 58 1
27 44 58 1
28 45 58 1
29 58 59 1
30 46 59 1
31 59 60 1
32 60 61 1
33 60 63 1
34 1 61 1
35 47 61 1
36 61 62 1
37 2 63 1
38 3 63 1
39 7 63 1
40 64 65 1
41 64 68 1
42 64 74 1
43 6 65 1
44 16 65 1
45 65 66 1
46 5 66 1
47 66 67 1
48 66 73 1
49 4 67 1
50 67 68 1
51 67 78 1
52 68 69 1
53 68 72 1
54 15 69 1
55 32 69 1
56 69 70 1
57 70 71 2
58 10 72 1
59 12 72 1
60 14 72 1
61 11 73 1
62 8 74 1
63 9 74 1
64 30 74 1
65 18 75 1
66 31 75 1
67 33 75 1
68 75 76 1
69 21 76 1
70 76 77 1
71 13 77 1
72 19 77 1
73 20 77 1
74 25 78 1
75 78 79 1
76 78 81 1
77 23 79 1
78 24 79 1
79 26 79 1
80 27 80 1
81 28 80 1
82 29 80 1
83 80 81 1
84 17 81 1
85 22 81 1
@<TRIPOS>SUBSTRUCTURE
1	UNK0	1	GROUP	1 ****	UNK
