# created with PyMOL 2.5.0
@<TRIPOS>MOLECULE
ZINC14969940
81 85 1                 
SMALL
USER_CHARGES
@<TRIPOS>ATOM
1	 H15	-13.470	208.000	112.290	 H	1	UNK0	0.000	
2	 H17	-14.400	204.540	113.630	 H	1	UNK0	0.000	
3	 H16	-13.050	204.500	114.770	 H	1	UNK0	0.000	
4	 H22	-5.400	209.880	114.150	 H	1	UNK0	0.000	
5	 H21	-4.640	207.110	113.150	 H	1	UNK0	0.000	
6	 H20	-6.750	206.500	112.700	 H	1	UNK0	0.000	
7	 H18	-12.750	204.430	113.030	 H	1	UNK0	0.000	
8	 H31	-8.600	209.420	112.550	 H	1	UNK0	0.000	
9	 H30	-7.180	210.150	113.260	 H	1	UNK0	0.000	
10	 H25	-5.390	207.000	116.420	 H	1	UNK0	0.000	
11	 H28	-5.190	209.580	111.840	 H	1	UNK0	0.000	
12	 H27	-5.710	206.240	114.850	 H	1	UNK0	0.000	
13	 H38	-19.310	206.940	112.510	 H	1	UNK0	0.000	
14	 H26	-6.980	206.350	116.060	 H	1	UNK0	0.000	
15	 H23	-7.380	210.100	115.790	 H	1	UNK0	0.000	
16	 H19	-7.050	207.960	111.760	 H	1	UNK0	0.000	
17	 H47	-3.200	209.060	113.170	 H	1	UNK0	0.000	
18	 H34	-18.260	205.670	110.500	 H	1	UNK0	0.000	
19	 H37	-18.190	207.770	113.580	 H	1	UNK0	0.000	
20	 H36	-18.250	208.180	111.880	 H	1	UNK0	0.000	
21	 H35	-17.580	205.390	112.830	 H	1	UNK0	0.000	
22	 H46	-2.670	210.100	114.310	 H	1	UNK0	0.000	
23	 H41	-2.800	209.460	116.720	 H	1	UNK0	0.000	
24	 H40	-4.450	208.990	117.120	 H	1	UNK0	0.000	
25	 H39	-3.730	207.570	115.250	 H	1	UNK0	0.000	
26	 H42	-4.170	210.460	116.180	 H	1	UNK0	0.000	
27	 H45	-0.910	208.730	113.490	 H	1	UNK0	0.000	
28	 H44	-1.730	207.330	114.220	 H	1	UNK0	0.000	
29	 H43	-1.160	208.660	115.280	 H	1	UNK0	0.000	
30	 H29	-8.660	209.970	114.220	 H	1	UNK0	0.000	
31	 H33	-16.510	205.370	110.500	 H	1	UNK0	0.000	
32	 H24	-6.470	209.170	117.000	 H	1	UNK0	0.000	
33	 H32	-17.130	207.000	110.290	 H	1	UNK0	0.000	
34	 H01	-14.090	208.140	114.610	 H	1	UNK0	0.000	
35	 H02	-14.540	205.550	116.140	 H	1	UNK0	0.000	
36	 H03	-14.790	207.200	116.700	 H	1	UNK0	0.000	
37	 H04	-12.580	206.560	117.570	 H	1	UNK0	0.000	
38	 H05	-9.850	205.890	116.130	 H	1	UNK0	0.000	
39	 H06	-10.380	207.050	117.320	 H	1	UNK0	0.000	
40	 H07	-9.990	208.780	115.260	 H	1	UNK0	0.000	
41	 H08	-8.350	206.280	114.620	 H	1	UNK0	0.000	
42	 H09	-9.070	206.670	112.330	 H	1	UNK0	0.000	
43	 H10	-10.040	208.050	112.820	 H	1	UNK0	0.000	
44	 H11	-10.470	205.270	113.980	 H	1	UNK0	0.000	
45	 H12	-11.180	205.820	112.480	 H	1	UNK0	0.000	
46	 H13	-11.840	207.960	113.930	 H	1	UNK0	0.000	
47	 H14	-12.910	206.470	111.620	 H	1	UNK0	0.000	
48	  C1	-15.900	206.660	112.870	C.2	1	UNK0	0.000	
49	  N1	-15.710	206.870	114.150	N.2	1	UNK0	0.000	
50	  C2	-14.320	207.070	114.610	C.3	1	UNK0	0.000	
51	  C3	-14.170	206.580	116.050	C.3	1	UNK0	0.000	
52	  C4	-12.750	206.640	116.510	C.2	1	UNK0	0.000	
53	  C5	-11.710	206.810	115.680	C.2	1	UNK0	0.000	
54	  C6	-10.310	206.880	116.240	C.3	1	UNK0	0.000	
55	  C7	-9.410	207.910	115.570	C.3	1	UNK0	0.000	
56	  C8	-8.710	207.270	114.350	C.3	1	UNK0	0.000	
57	  C9	-9.640	207.080	113.160	C.3	1	UNK0	0.000	
58	 C10	-10.800	206.150	113.440	C.3	1	UNK0	0.000	
59	 C11	-11.900	206.900	114.190	C.3	1	UNK0	0.000	
60	 C12	-13.280	206.410	113.740	C.3	1	UNK0	0.000	
61	 C13	-13.580	206.910	112.340	C.3	1	UNK0	0.000	
62	  O1	-14.910	206.590	111.940	O.3	1	UNK0	0.000	
63	 C14	-13.380	204.890	113.800	C.3	1	UNK0	0.000	
64	 C15	-7.530	208.120	113.910	C.3	1	UNK0	0.000	
65	 C16	-6.700	207.580	112.730	C.3	1	UNK0	0.000	
66	 C17	-5.240	208.010	113.030	C.3	1	UNK0	0.000	
67	 C18	-5.270	208.810	114.350	C.3	1	UNK0	0.000	
68	 C19	-6.510	208.250	115.060	C.3	1	UNK0	0.000	
69	 C20	-7.140	209.100	116.140	C.3	1	UNK0	0.000	
70	 C21	-8.400	208.410	116.610	C.2	1	UNK0	0.000	
71	  O2	-8.610	208.340	117.810	O.2	1	UNK0	0.000	
72	 C22	-6.130	206.880	115.630	C.3	1	UNK0	0.000	
73	  O3	-4.640	208.770	111.990	O.3	1	UNK0	0.000	
74	 C23	-8.020	209.490	113.470	C.3	1	UNK0	0.000	
75	 C24	-17.290	206.060	110.820	C.3	1	UNK0	0.000	
76	 C25	-17.270	206.300	112.310	C.3	1	UNK0	0.000	
77	 C26	-18.310	207.360	112.590	C.3	1	UNK0	0.000	
78	 C27	-3.920	208.630	115.060	C.3	1	UNK0	0.000	
79	 C28	-3.830	209.440	116.340	C.3	1	UNK0	0.000	
80	 C29	-1.550	208.400	114.300	C.3	1	UNK0	0.000	
81	  N2	-2.880	209.070	114.150	N.4	1	UNK0	0.000	
@<TRIPOS>BOND
1 48 49 2
2 48 62 1
3 48 76 1
4 49 50 1
5 34 50 1
6 50 51 1
7 50 60 1
8 35 51 1
9 36 51 1
10 51 52 1
11 37 52 1
12 52 53 2
13 53 54 1
14 53 59 1
15 38 54 1
16 39 54 1
17 54 55 1
18 40 55 1
19 55 56 1
20 55 70 1
21 41 56 1
22 56 57 1
23 56 64 1
24 42 57 1
25 43 57 1
26 57 58 1
27 44 58 1
28 45 58 1
29 58 59 1
30 46 59 1
31 59 60 1
32 60 61 1
33 60 63 1
34 1 61 1
35 47 61 1
36 61 62 1
37 2 63 1
38 3 63 1
39 7 63 1
40 64 65 1
41 64 68 1
42 64 74 1
43 6 65 1
44 16 65 1
45 65 66 1
46 5 66 1
47 66 67 1
48 66 73 1
49 4 67 1
50 67 68 1
51 67 78 1
52 68 69 1
53 68 72 1
54 15 69 1
55 32 69 1
56 69 70 1
57 70 71 2
58 10 72 1
59 12 72 1
60 14 72 1
61 11 73 1
62 8 74 1
63 9 74 1
64 30 74 1
65 18 75 1
66 31 75 1
67 33 75 1
68 75 76 1
69 21 76 1
70 76 77 1
71 13 77 1
72 19 77 1
73 20 77 1
74 25 78 1
75 78 79 1
76 78 81 1
77 23 79 1
78 24 79 1
79 26 79 1
80 27 80 1
81 28 80 1
82 29 80 1
83 80 81 1
84 17 81 1
85 22 81 1
@<TRIPOS>SUBSTRUCTURE
1	UNK0	1	GROUP	1 ****	UNK
