step2_200_2000_5.0_22633.xyz.gro
  PyMOL2.5          3D                             0

 34 38  0  0  0  0  0  0  0  0999 V2000
  -16.1668  206.6972  112.8967 C   0  0  0  0  0  0  0  0  0  0  0  0
  -15.9964  207.3369  114.0168 N   0  0  0  0  0  0  0  0  0  0  0  0
  -14.6162  207.7161  114.3768 C   0  0  0  0  0  0  0  0  0  0  0  0
  -14.4361  207.8257  115.8769 C   0  0  0  0  0  0  0  0  0  0  0  0
  -13.0159  208.0749  116.2668 C   0  0  0  0  0  0  0  0  0  0  0  0
  -11.9660  207.9145  115.4168 C   0  0  0  0  0  0  0  0  0  0  0  0
  -10.5659  208.1637  115.8968 C   0  0  0  0  0  0  0  0  0  0  0  0
   -9.6456  208.8634  114.8869 C   0  0  0  0  0  0  0  0  0  0  0  0
   -9.0361  207.8532  113.8966 C   0  0  0  0  0  0  0  0  0  0  0  0
  -10.0265  207.2940  112.8966 C   0  0  0  0  0  0  0  0  0  0  0  0
  -11.1069  206.4944  113.5665 C   0  0  0  0  0  0  0  0  0  0  0  0
  -12.2163  207.4449  114.0267 C   0  0  0  0  0  0  0  0  0  0  0  0
  -13.5667  206.7857  113.7966 C   0  0  0  0  0  0  0  0  0  0  0  0
  -13.8668  206.7361  112.3266 C   0  0  0  0  0  0  0  0  0  0  0  0
  -15.1770  206.2769  112.0466 O   0  0  0  0  0  0  0  0  0  0  0  0
  -13.6474  205.4056  114.4363 C   0  0  0  0  0  0  0  0  0  0  0  0
   -7.8758  208.4828  113.1367 C   0  0  0  0  0  0  0  0  0  0  0  0
   -7.1864  207.5826  112.1165 C   0  0  0  0  0  0  0  0  0  0  0  0
   -5.7261  208.0719  112.0665 C   0  0  0  0  0  0  0  0  0  0  0  0
   -5.5755  209.1716  113.1467 C   0  0  0  0  0  0  0  0  0  0  0  0
   -6.7656  208.8920  114.1167 C   0  0  0  0  0  0  0  0  0  0  0  0
   -7.2849  210.0421  114.9570 C   0  0  0  0  0  0  0  0  0  0  0  0
   -8.5451  209.5826  115.6769 C   0  0  0  0  0  0  0  0  0  0  0  0
   -8.7149  209.8825  116.8470 O   0  0  0  0  0  0  0  0  0  0  0  0
   -6.3861  207.7616  115.0465 C   0  0  0  0  0  0  0  0  0  0  0  0
   -5.4259  208.5620  110.7566 O   0  0  0  0  0  0  0  0  0  0  0  0
   -8.3852  209.6832  112.3370 C   0  0  0  0  0  0  0  0  0  0  0  0
  -18.5564  207.3886  112.5369 C   0  0  0  0  0  0  0  0  0  0  0  0
  -17.5270  206.2881  112.3867 C   0  0  0  0  0  0  0  0  0  0  0  0
  -17.9877  205.0282  113.1165 C   0  0  0  0  0  0  0  0  0  0  0  0
   -4.1254  209.2707  113.6567 C   0  0  0  0  0  0  0  0  0  0  0  0
   -3.1953  209.4904  112.4867 C   0  0  0  0  0  0  0  0  0  0  0  0
   -2.3558  208.3095  115.0464 C   0  0  0  0  0  0  0  0  0  0  0  0
   -3.6460  208.0303  114.3664 N   0  0  0  0  0  0  0  0  0  0  0  0
  1  2  1  0  0  0  0
  1 15  1  0  0  0  0
  1 29  1  0  0  0  0
  2  3  1  0  0  0  0
  3  4  1  0  0  0  0
  3 13  1  0  0  0  0
  4  5  1  0  0  0  0
  5  6  1  0  0  0  0
  6  7  1  0  0  0  0
  6 12  1  0  0  0  0
  7  8  1  0  0  0  0
  8  9  1  0  0  0  0
  8 23  1  0  0  0  0
  9 10  1  0  0  0  0
  9 17  1  0  0  0  0
 10 11  1  0  0  0  0
 11 12  1  0  0  0  0
 12 13  1  0  0  0  0
 13 14  1  0  0  0  0
 13 16  1  0  0  0  0
 14 15  1  0  0  0  0
 17 18  1  0  0  0  0
 17 21  1  0  0  0  0
 17 27  1  0  0  0  0
 18 19  1  0  0  0  0
 19 20  1  0  0  0  0
 19 26  1  0  0  0  0
 20 21  1  0  0  0  0
 20 31  1  0  0  0  0
 21 22  1  0  0  0  0
 21 25  1  0  0  0  0
 22 23  1  0  0  0  0
 23 24  1  0  0  0  0
 28 29  1  0  0  0  0
 29 30  1  0  0  0  0
 31 32  1  0  0  0  0
 31 34  1  0  0  0  0
 33 34  1  0  0  0  0
M  END
$$$$
