step2_200_2000_5.0_23287.xyz.gro
  PyMOL2.5          3D                             0

 34 38  0  0  0  0  0  0  0  0999 V2000
  -14.3019  205.6397  113.3565 C   0  0  0  0  0  0  0  0  0  0  0  0
  -14.1718  206.5798  114.2465 N   0  0  0  0  0  0  0  0  0  0  0  0
  -12.8517  206.7097  114.9063 C   0  0  0  0  0  0  0  0  0  0  0  0
  -13.0116  207.2898  116.3063 C   0  0  0  0  0  0  0  0  0  0  0  0
  -11.7415  207.2197  117.0962 C   0  0  0  0  0  0  0  0  0  0  0  0
  -10.6716  206.4797  116.7262 C   0  0  0  0  0  0  0  0  0  0  0  0
   -9.4016  206.4696  117.4961 C   0  0  0  0  0  0  0  0  0  0  0  0
   -8.1816  206.6495  116.5760 C   0  0  0  0  0  0  0  0  0  0  0  0
   -7.5717  205.3395  116.0560 C   0  0  0  0  0  0  0  0  0  0  0  0
   -8.5218  204.4195  115.3061 C   0  0  0  0  0  0  0  0  0  0  0  0
   -9.9718  204.3496  115.7562 C   0  0  0  0  0  0  0  0  0  0  0  0
  -10.7017  205.6496  115.4862 C   0  0  0  0  0  0  0  0  0  0  0  0
  -12.1118  205.3897  114.9864 C   0  0  0  0  0  0  0  0  0  0  0  0
  -12.0419  204.9196  113.5564 C   0  0  0  0  0  0  0  0  0  0  0  0
  -13.3220  204.7596  112.9665 O   0  0  0  0  0  0  0  0  0  0  0  0
  -12.8518  204.3797  115.8664 C   0  0  0  0  0  0  0  0  0  0  0  0
   -6.3718  205.7094  115.1559 C   0  0  0  0  0  0  0  0  0  0  0  0
   -5.5219  204.6093  114.4459 C   0  0  0  0  0  0  0  0  0  0  0  0
   -4.0819  205.2092  114.3158 C   0  0  0  0  0  0  0  0  0  0  0  0
   -4.2317  206.6693  114.8157 C   0  0  0  0  0  0  0  0  0  0  0  0
   -5.2717  206.4494  115.9658 C   0  0  0  0  0  0  0  0  0  0  0  0
   -5.8416  207.6894  116.6458 C   0  0  0  0  0  0  0  0  0  0  0  0
   -7.1115  207.3495  117.3659 C   0  0  0  0  0  0  0  0  0  0  0  0
   -7.3214  207.7796  118.4959 O   0  0  0  0  0  0  0  0  0  0  0  0
   -4.7616  205.4294  117.0158 C   0  0  0  0  0  0  0  0  0  0  0  0
   -3.5620  205.1391  112.9857 O   0  0  0  0  0  0  0  0  0  0  0  0
   -6.9218  206.6194  114.0459 C   0  0  0  0  0  0  0  0  0  0  0  0
  -15.6020  206.4597  111.4266 C   0  0  0  0  0  0  0  0  0  0  0  0
  -15.5520  205.4397  112.5466 C   0  0  0  0  0  0  0  0  0  0  0  0
  -16.8019  205.5898  113.3967 C   0  0  0  0  0  0  0  0  0  0  0  0
   -2.9617  207.5592  114.9456 C   0  0  0  0  0  0  0  0  0  0  0  0
   -3.3116  208.8792  115.5755 C   0  0  0  0  0  0  0  0  0  0  0  0
   -1.1018  208.3890  113.4254 C   0  0  0  0  0  0  0  0  0  0  0  0
   -2.4718  207.8391  113.5555 N   0  0  0  0  0  0  0  0  0  0  0  0
  1  2  1  0  0  0  0
  1 15  1  0  0  0  0
  1 29  1  0  0  0  0
  2  3  1  0  0  0  0
  3  4  1  0  0  0  0
  3 13  1  0  0  0  0
  4  5  1  0  0  0  0
  5  6  1  0  0  0  0
  6  7  1  0  0  0  0
  6 12  1  0  0  0  0
  7  8  1  0  0  0  0
  8  9  1  0  0  0  0
  8 23  1  0  0  0  0
  9 10  1  0  0  0  0
  9 17  1  0  0  0  0
 10 11  1  0  0  0  0
 11 12  1  0  0  0  0
 12 13  1  0  0  0  0
 13 14  1  0  0  0  0
 13 16  1  0  0  0  0
 14 15  1  0  0  0  0
 17 18  1  0  0  0  0
 17 21  1  0  0  0  0
 17 27  1  0  0  0  0
 18 19  1  0  0  0  0
 19 20  1  0  0  0  0
 19 26  1  0  0  0  0
 20 21  1  0  0  0  0
 20 31  1  0  0  0  0
 21 22  1  0  0  0  0
 21 25  1  0  0  0  0
 22 23  1  0  0  0  0
 23 24  1  0  0  0  0
 28 29  1  0  0  0  0
 29 30  1  0  0  0  0
 31 32  1  0  0  0  0
 31 34  1  0  0  0  0
 33 34  1  0  0  0  0
M  END
$$$$
