# created with PyMOL 2.5.0
@<TRIPOS>MOLECULE
ZINC14969940
81 85 1                 
SMALL
USER_CHARGES
@<TRIPOS>ATOM
1	 H15	-14.050	208.890	113.730	 H	1	UNK0	0.000	
2	 H17	-13.720	204.780	114.220	 H	1	UNK0	0.000	
3	 H16	-15.180	205.090	113.290	 H	1	UNK0	0.000	
4	 H22	-7.040	209.120	118.170	 H	1	UNK0	0.000	
5	 H21	-5.930	206.810	116.500	 H	1	UNK0	0.000	
6	 H20	-7.800	206.720	115.230	 H	1	UNK0	0.000	
7	 H18	-13.620	205.600	112.670	 H	1	UNK0	0.000	
8	 H31	-9.560	209.610	115.820	 H	1	UNK0	0.000	
9	 H30	-8.490	209.870	117.170	 H	1	UNK0	0.000	
10	 H25	-7.520	205.550	119.060	 H	1	UNK0	0.000	
11	 H28	-5.670	208.840	115.130	 H	1	UNK0	0.000	
12	 H27	-7.260	205.550	117.320	 H	1	UNK0	0.000	
13	 H38	-17.550	205.210	111.790	 H	1	UNK0	0.000	
14	 H26	-8.850	205.210	117.970	 H	1	UNK0	0.000	
15	 H23	-9.440	208.740	119.230	 H	1	UNK0	0.000	
16	 H19	-7.820	208.470	114.960	 H	1	UNK0	0.000	
17	 H47	-3.740	208.010	119.110	 H	1	UNK0	0.000	
18	 H34	-19.410	208.040	113.080	 H	1	UNK0	0.000	
19	 H37	-18.910	205.770	112.760	 H	1	UNK0	0.000	
20	 H36	-19.000	205.870	111.000	 H	1	UNK0	0.000	
21	 H35	-17.290	207.560	110.910	 H	1	UNK0	0.000	
22	 H46	-4.470	208.440	117.670	 H	1	UNK0	0.000	
23	 H41	-5.330	207.710	121.090	 H	1	UNK0	0.000	
24	 H40	-6.890	206.980	120.720	 H	1	UNK0	0.000	
25	 H39	-5.520	206.580	118.780	 H	1	UNK0	0.000	
26	 H42	-6.690	208.730	120.600	 H	1	UNK0	0.000	
27	 H45	-3.670	210.270	118.990	 H	1	UNK0	0.000	
28	 H44	-5.050	209.930	120.090	 H	1	UNK0	0.000	
29	 H43	-5.320	210.320	118.320	 H	1	UNK0	0.000	
30	 H29	-10.170	209.420	117.450	 H	1	UNK0	0.000	
31	 H33	-19.540	208.400	111.350	 H	1	UNK0	0.000	
32	 H24	-8.840	207.390	120.180	 H	1	UNK0	0.000	
33	 H32	-18.450	209.340	112.380	 H	1	UNK0	0.000	
34	 H01	-15.700	207.930	115.550	 H	1	UNK0	0.000	
35	 H02	-16.000	204.890	115.560	 H	1	UNK0	0.000	
36	 H03	-16.640	206.040	116.710	 H	1	UNK0	0.000	
37	 H04	-14.660	205.110	117.800	 H	1	UNK0	0.000	
38	 H05	-11.710	205.050	117.160	 H	1	UNK0	0.000	
39	 H06	-12.620	205.730	118.480	 H	1	UNK0	0.000	
40	 H07	-11.660	208.050	117.590	 H	1	UNK0	0.000	
41	 H08	-9.860	205.900	116.330	 H	1	UNK0	0.000	
42	 H09	-9.920	207.360	114.370	 H	1	UNK0	0.000	
43	 H10	-11.050	208.450	115.180	 H	1	UNK0	0.000	
44	 H11	-11.660	205.510	114.750	 H	1	UNK0	0.000	
45	 H12	-11.960	206.750	113.540	 H	1	UNK0	0.000	
46	 H13	-13.110	208.050	115.560	 H	1	UNK0	0.000	
47	 H14	-13.580	207.710	112.500	 H	1	UNK0	0.000	
48	  C1	-16.650	207.410	112.940	C.2	1	UNK0	0.000	
49	  N1	-16.800	206.870	114.110	N.2	1	UNK0	0.000	
50	  C2	-15.660	206.960	115.030	C.3	1	UNK0	0.000	
51	  C3	-15.790	205.840	116.060	C.3	1	UNK0	0.000	
52	  C4	-14.560	205.680	116.880	C.2	1	UNK0	0.000	
53	  C5	-13.380	206.210	116.560	C.2	1	UNK0	0.000	
54	  C6	-12.220	205.960	117.490	C.3	1	UNK0	0.000	
55	  C7	-11.170	207.070	117.590	C.3	1	UNK0	0.000	
56	  C8	-10.150	206.950	116.450	C.3	1	UNK0	0.000	
57	  C9	-10.720	207.410	115.110	C.3	1	UNK0	0.000	
58	 C10	-11.880	206.580	114.610	C.3	1	UNK0	0.000	
59	 C11	-13.180	207.000	115.290	C.3	1	UNK0	0.000	
60	 C12	-14.340	206.840	114.300	C.3	1	UNK0	0.000	
61	 C13	-14.330	207.940	113.260	C.3	1	UNK0	0.000	
62	  O1	-15.560	208.140	112.560	O.3	1	UNK0	0.000	
63	 C14	-14.220	205.500	113.580	C.3	1	UNK0	0.000	
64	 C15	-8.900	207.770	116.750	C.3	1	UNK0	0.000	
65	 C16	-7.760	207.690	115.730	C.3	1	UNK0	0.000	
66	 C17	-6.460	207.770	116.560	C.3	1	UNK0	0.000	
67	 C18	-6.890	208.060	118.020	C.3	1	UNK0	0.000	
68	 C19	-8.260	207.330	118.080	C.3	1	UNK0	0.000	
69	 C20	-9.220	207.680	119.200	C.3	1	UNK0	0.000	
70	 C21	-10.480	206.890	118.940	C.2	1	UNK0	0.000	
71	  O2	-10.670	205.870	119.590	O.2	1	UNK0	0.000	
72	 C22	-7.960	205.830	118.100	C.3	1	UNK0	0.000	
73	  O3	-5.530	208.750	116.100	O.3	1	UNK0	0.000	
74	 C23	-9.300	209.240	116.810	C.3	1	UNK0	0.000	
75	 C24	-18.840	208.350	112.190	C.3	1	UNK0	0.000	
76	 C25	-17.720	207.350	111.890	C.3	1	UNK0	0.000	
77	 C26	-18.330	205.970	111.860	C.3	1	UNK0	0.000	
78	 C27	-5.810	207.610	118.980	C.3	1	UNK0	0.000	
79	 C28	-6.200	207.770	120.430	C.3	1	UNK0	0.000	
80	 C29	-4.680	209.850	119.060	C.3	1	UNK0	0.000	
81	  N2	-4.580	208.430	118.700	N.4	1	UNK0	0.000	
@<TRIPOS>BOND
1 48 49 2
2 48 62 1
3 48 76 1
4 49 50 1
5 34 50 1
6 50 51 1
7 50 60 1
8 35 51 1
9 36 51 1
10 51 52 1
11 37 52 1
12 52 53 2
13 53 54 1
14 53 59 1
15 38 54 1
16 39 54 1
17 54 55 1
18 40 55 1
19 55 56 1
20 55 70 1
21 41 56 1
22 56 57 1
23 56 64 1
24 42 57 1
25 43 57 1
26 57 58 1
27 44 58 1
28 45 58 1
29 58 59 1
30 46 59 1
31 59 60 1
32 60 61 1
33 60 63 1
34 1 61 1
35 47 61 1
36 61 62 1
37 2 63 1
38 3 63 1
39 7 63 1
40 64 65 1
41 64 68 1
42 64 74 1
43 6 65 1
44 16 65 1
45 65 66 1
46 5 66 1
47 66 67 1
48 66 73 1
49 4 67 1
50 67 68 1
51 67 78 1
52 68 69 1
53 68 72 1
54 15 69 1
55 32 69 1
56 69 70 1
57 70 71 2
58 10 72 1
59 12 72 1
60 14 72 1
61 11 73 1
62 8 74 1
63 9 74 1
64 30 74 1
65 18 75 1
66 31 75 1
67 33 75 1
68 75 76 1
69 21 76 1
70 76 77 1
71 13 77 1
72 19 77 1
73 20 77 1
74 25 78 1
75 78 79 1
76 78 81 1
77 23 79 1
78 24 79 1
79 26 79 1
80 27 80 1
81 28 80 1
82 29 80 1
83 80 81 1
84 17 81 1
85 22 81 1
@<TRIPOS>SUBSTRUCTURE
1	UNK0	1	GROUP	1 ****	UNK
