@<TRIPOS>MOLECULE
ZINC14969940
 34 38 0 0 0
SMALL
USER_CHARGES

@<TRIPOS>ATOM
      1 C1        -14.5700  206.0700  112.8500 C.2     1  UNK01       0.0000
      2 N1        -14.5100  206.6600  114.0100 N.2     1  UNK01       0.0000
      3 C2        -13.1700  207.0500  114.5100 C.3     1  UNK01       0.0000
      4 C3        -13.1400  207.0600  116.0400 C.3     1  UNK01       0.0000
      5 C4        -11.7500  207.2300  116.5900 C.2     1  UNK01       0.0000
      6 C5        -10.6300  207.1100  115.8600 C.2     1  UNK01       0.0000
      7 C6         -9.2800  207.2500  116.5500 C.3     1  UNK01       0.0000
      8 C7         -8.1800  207.9700  115.7600 C.3     1  UNK01       0.0000
      9 C8         -7.4500  206.9700  114.8400 C.3     1  UNK01       0.0000
     10 C9         -8.3100  206.6400  113.6300 C.3     1  UNK01       0.0000
     11 C10        -9.5500  205.8500  113.9900 C.3     1  UNK01       0.0000
     12 C11       -10.6900  206.7800  114.4000 C.3     1  UNK01       0.0000
     13 C12       -12.0500  206.1700  113.9900 C.3     1  UNK01       0.0000
     14 C13       -12.1900  206.2000  112.4900 C.3     1  UNK01       0.0000
     15 O1        -13.4900  205.8000  112.0500 O.2     1  UNK01       0.0000
     16 C14       -12.1900  204.7400  114.4900 C.3     1  UNK01       0.0000
     17 C15        -6.1200  207.5400  114.3600 C.3     1  UNK01       0.0000
     18 C16        -5.2700  206.6400  113.4500 C.3     1  UNK01       0.0000
     19 C17        -3.8600  207.2600  113.5200 C.3     1  UNK01       0.0000
     20 C18        -3.7600  207.9600  114.9100 C.3     1  UNK01       0.0000
     21 C19        -5.1900  207.8500  115.5400 C.3     1  UNK01       0.0000
     22 C20        -5.8000  208.9900  116.3300 C.3     1  UNK01       0.0000
     23 C21        -7.2400  208.6700  116.7400 C.2     1  UNK01       0.0000
     24 O2         -7.6800  209.2200  117.7400 O.2     1  UNK01       0.0000
     25 C22        -5.1100  206.6400  116.4800 C.3     1  UNK01       0.0000
     26 O3         -3.7100  208.1700  112.4400 O.3     1  UNK01       0.0000
     27 C23        -6.3800  208.8000  113.5700 C.3     1  UNK01       0.0000
     28 C24       -16.4300  207.0600  111.5500 C.3     1  UNK01       0.0000
     29 C25       -15.8700  205.7700  112.1000 C.3     1  UNK01       0.0000
     30 C26       -16.9500  205.1300  112.9500 C.3     1  UNK01       0.0000
     31 C27        -2.8600  209.2300  115.0000 C.3     1  UNK01       0.0000
     32 C28        -2.9000  209.8800  116.3600 C.3     1  UNK01       0.0000
     33 C29        -1.9000  211.0600  113.6300 C.3     1  UNK01       0.0000
     34 N2         -3.1100  210.2800  113.9700 N.4     1  UNK01       0.0000
@<TRIPOS>UNITY_ATOM_ATTR
34 1
charge 1
@<TRIPOS>BOND
     1     1     2    2
     2     1    15    1
     3     1    29    1
     4     2     3    1
     5     3     4    1
     6     3    13    1
     7     4     5    1
     8     5     6    2
     9     6     7    1
    10     6    12    1
    11     7     8    1
    12     8     9    1
    13     8    23    1
    14     9    10    1
    15     9    17    1
    16    10    11    1
    17    11    12    1
    18    12    13    1
    19    13    14    1
    20    13    16    1
    21    14    15    1
    22    17    18    1
    23    17    21    1
    24    17    27    1
    25    18    19    1
    26    19    20    1
    27    19    26    1
    28    20    21    1
    29    20    31    1
    30    21    22    1
    31    21    25    1
    32    22    23    1
    33    23    24    2
    34    28    29    1
    35    29    30    1
    36    31    32    1
    37    31    34    1
    38    33    34    1
