step2_200_2000_5.0_6798.xyz.gro
  PyMOL2.5          3D                             0

 34 38  0  0  0  0  0  0  0  0999 V2000
  -16.6577  207.4119  112.9291 C   0  0  0  0  0  0  0  0  0  0  0  0
  -16.8074  206.8717  114.0991 N   0  0  0  0  0  0  0  0  0  0  0  0
  -15.6671  206.9614  115.0187 C   0  0  0  0  0  0  0  0  0  0  0  0
  -15.7969  205.8411  116.0485 C   0  0  0  0  0  0  0  0  0  0  0  0
  -14.5666  205.6809  116.8681 C   0  0  0  0  0  0  0  0  0  0  0  0
  -13.3867  206.2109  116.5479 C   0  0  0  0  0  0  0  0  0  0  0  0
  -12.2264  205.9606  117.4774 C   0  0  0  0  0  0  0  0  0  0  0  0
  -11.1763  207.0705  117.5774 C   0  0  0  0  0  0  0  0  0  0  0  0
  -10.1567  206.9507  116.4370 C   0  0  0  0  0  0  0  0  0  0  0  0
  -10.7271  207.4110  115.0973 C   0  0  0  0  0  0  0  0  0  0  0  0
  -11.8873  206.5813  114.5975 C   0  0  0  0  0  0  0  0  0  0  0  0
  -13.1870  207.0012  115.2780 C   0  0  0  0  0  0  0  0  0  0  0  0
  -14.3473  206.8415  114.2883 C   0  0  0  0  0  0  0  0  0  0  0  0
  -14.3376  207.9417  113.2486 C   0  0  0  0  0  0  0  0  0  0  0  0
  -15.5678  208.1419  112.5490 O   0  0  0  0  0  0  0  0  0  0  0  0
  -14.2277  205.5016  113.5679 C   0  0  0  0  0  0  0  0  0  0  0  0
   -8.9065  207.7706  116.7368 C   0  0  0  0  0  0  0  0  0  0  0  0
   -7.7669  207.6907  115.7165 C   0  0  0  0  0  0  0  0  0  0  0  0
   -6.4666  207.7704  116.5461 C   0  0  0  0  0  0  0  0  0  0  0  0
   -6.8961  208.0601  118.0063 C   0  0  0  0  0  0  0  0  0  0  0  0
   -8.2662  207.3302  118.0665 C   0  0  0  0  0  0  0  0  0  0  0  0
   -9.2258  207.6800  119.1869 C   0  0  0  0  0  0  0  0  0  0  0  0
  -10.4859  206.8901  118.9271 C   0  0  0  0  0  0  0  0  0  0  0  0
  -10.6758  205.8700  119.5769 O   0  0  0  0  0  0  0  0  0  0  0  0
   -7.9662  205.8302  118.0861 C   0  0  0  0  0  0  0  0  0  0  0  0
   -5.5367  208.7505  116.0860 O   0  0  0  0  0  0  0  0  0  0  0  0
   -9.3064  209.2405  116.7973 C   0  0  0  0  0  0  0  0  0  0  0  0
  -18.8479  208.3522  112.1801 C   0  0  0  0  0  0  0  0  0  0  0  0
  -17.7281  207.3523  111.8795 C   0  0  0  0  0  0  0  0  0  0  0  0
  -18.3382  205.9723  111.8493 C   0  0  0  0  0  0  0  0  0  0  0  0
   -5.8159  207.6098  118.9659 C   0  0  0  0  0  0  0  0  0  0  0  0
   -6.2054  207.7695  120.4160 C   0  0  0  0  0  0  0  0  0  0  0  0
   -4.6857  209.8497  119.0461 C   0  0  0  0  0  0  0  0  0  0  0  0
   -4.5859  208.4298  118.6857 N   0  0  0  0  0  0  0  0  0  0  0  0
  1  2  1  0  0  0  0
  1 15  1  0  0  0  0
  1 29  1  0  0  0  0
  2  3  1  0  0  0  0
  3  4  1  0  0  0  0
  3 13  1  0  0  0  0
  4  5  1  0  0  0  0
  5  6  1  0  0  0  0
  6  7  1  0  0  0  0
  6 12  1  0  0  0  0
  7  8  1  0  0  0  0
  8  9  1  0  0  0  0
  8 23  1  0  0  0  0
  9 10  1  0  0  0  0
  9 17  1  0  0  0  0
 10 11  1  0  0  0  0
 11 12  1  0  0  0  0
 12 13  1  0  0  0  0
 13 14  1  0  0  0  0
 13 16  1  0  0  0  0
 14 15  1  0  0  0  0
 17 18  1  0  0  0  0
 17 21  1  0  0  0  0
 17 27  1  0  0  0  0
 18 19  1  0  0  0  0
 19 20  1  0  0  0  0
 19 26  1  0  0  0  0
 20 21  1  0  0  0  0
 20 31  1  0  0  0  0
 21 22  1  0  0  0  0
 21 25  1  0  0  0  0
 22 23  1  0  0  0  0
 23 24  1  0  0  0  0
 28 29  1  0  0  0  0
 29 30  1  0  0  0  0
 31 32  1  0  0  0  0
 31 34  1  0  0  0  0
 33 34  1  0  0  0  0
M  END
$$$$
