step2_200_2000_5.0_85083.xyz.gro
  PyMOL2.5          3D                             0

 34 38  0  0  0  0  0  0  0  0999 V2000
  -14.9281  208.5079  111.7727 C   0  0  0  0  0  0  0  0  0  0  0  0
  -14.9882  208.7179  113.0427 N   0  0  0  0  0  0  0  0  0  0  0  0
  -13.7283  208.8480  113.7828 C   0  0  0  0  0  0  0  0  0  0  0  0
  -13.9385  208.3880  115.2128 C   0  0  0  0  0  0  0  0  0  0  0  0
  -12.6586  208.3181  115.9630 C   0  0  0  0  0  0  0  0  0  0  0  0
  -11.4585  208.3781  115.3831 C   0  0  0  0  0  0  0  0  0  0  0  0
  -10.2486  208.3581  116.2533 C   0  0  0  0  0  0  0  0  0  0  0  0
   -9.1786  209.3481  115.8033 C   0  0  0  0  0  0  0  0  0  0  0  0
   -8.2485  208.0681  115.1935 C   0  0  0  0  0  0  0  0  0  0  0  0
   -9.1983  207.8481  113.8634 C   0  0  0  0  0  0  0  0  0  0  0  0
  -10.1083  207.6780  113.4033 C   0  0  0  0  0  0  0  0  0  0  0  0
  -11.2883  208.4980  113.8931 C   0  0  0  0  0  0  0  0  0  0  0  0
  -12.5782  208.0980  113.1530 C   0  0  0  0  0  0  0  0  0  0  0  0
  -12.5481  208.5379  111.7030 C   0  0  0  0  0  0  0  0  0  0  0  0
  -13.7880  208.2879  111.0528 O   0  0  0  0  0  0  0  0  0  0  0  0
  -12.7882  206.5880  113.2330 C   0  0  0  0  0  0  0  0  0  0  0  0
   -7.7884  208.2081  114.3135 C   0  0  0  0  0  0  0  0  0  0  0  0
   -5.8083  208.7081  113.9638 C   0  0  0  0  0  0  0  0  0  0  0  0
   -4.6784  207.8782  114.2639 C   0  0  0  0  0  0  0  0  0  0  0  0
   -4.7786  209.8882  115.8338 C   0  0  0  0  0  0  0  0  0  0  0  0
   -6.2786  209.4982  116.1437 C   0  0  0  0  0  0  0  0  0  0  0  0
   -7.6188  210.1582  117.8935 C   0  0  0  0  0  0  0  0  0  0  0  0
   -8.4987  209.8882  117.0634 C   0  0  0  0  0  0  0  0  0  0  0  0
   -8.9188  209.6082  118.1634 O   0  0  0  0  0  0  0  0  0  0  0  0
   -5.9887  208.2082  116.9138 C   0  0  0  0  0  0  0  0  0  0  0  0
   -3.9582  207.8281  113.0040 O   0  0  0  0  0  0  0  0  0  0  0  0
   -8.7482  208.7680  112.8134 C   0  0  0  0  0  0  0  0  0  0  0  0
  -17.3880  208.8278  111.4024 C   0  0  0  0  0  0  0  0  0  0  0  0
  -16.1580  208.0278  111.0226 C   0  0  0  0  0  0  0  0  0  0  0  0
  -16.4280  206.5878  111.3926 C   0  0  0  0  0  0  0  0  0  0  0  0
   -3.6387  209.7883  116.8440 C   0  0  0  0  0  0  0  0  0  0  0  0
   -3.9289  210.4583  118.1839 C   0  0  0  0  0  0  0  0  0  0  0  0
   -1.6387  208.5083  117.3042 C   0  0  0  0  0  0  0  0  0  0  0  0
   -3.1087  208.4183  117.0641 N   0  0  0  0  0  0  0  0  0  0  0  0
  1  2  1  0  0  0  0
  1 15  1  0  0  0  0
  1 29  1  0  0  0  0
  2  3  1  0  0  0  0
  3  4  1  0  0  0  0
  3 13  1  0  0  0  0
  4  5  1  0  0  0  0
  5  6  1  0  0  0  0
  6  7  1  0  0  0  0
  6 12  1  0  0  0  0
  7  8  1  0  0  0  0
  8  9  1  0  0  0  0
  8 23  1  0  0  0  0
  9 10  1  0  0  0  0
  9 17  1  0  0  0  0
 10 11  1  0  0  0  0
 10 17  1  0  0  0  0
 10 27  1  0  0  0  0
 11 12  1  0  0  0  0
 11 27  1  0  0  0  0
 12 13  1  0  0  0  0
 13 14  1  0  0  0  0
 13 16  1  0  0  0  0
 14 15  1  0  0  0  0
 17 27  1  0  0  0  0
 18 19  1  0  0  0  0
 19 26  1  0  0  0  0
 20 21  1  0  0  0  0
 20 31  1  0  0  0  0
 21 25  1  0  0  0  0
 22 23  1  0  0  0  0
 22 24  1  0  0  0  0
 23 24  1  0  0  0  0
 28 29  1  0  0  0  0
 29 30  1  0  0  0  0
 31 32  1  0  0  0  0
 31 34  1  0  0  0  0
 33 34  1  0  0  0  0
M  END
$$$$
