step2_200_2000_5.0_52593.xyz.gro
  PyMOL2.5          3D                             0

 34 38  0  0  0  0  0  0  0  0999 V2000
  -15.4393  206.7281  112.7910 C   0  0  0  0  0  0  0  0  0  0  0  0
  -15.4294  207.1281  114.0210 N   0  0  0  0  0  0  0  0  0  0  0  0
  -14.1495  207.6880  114.5112 C   0  0  0  0  0  0  0  0  0  0  0  0
  -14.1197  207.6680  116.0412 C   0  0  0  0  0  0  0  0  0  0  0  0
  -12.7397  207.8279  116.6114 C   0  0  0  0  0  0  0  0  0  0  0  0
  -11.6096  207.7977  115.9016 C   0  0  0  0  0  0  0  0  0  0  0  0
  -10.2697  207.8576  116.6018 C   0  0  0  0  0  0  0  0  0  0  0  0
   -9.1296  208.6275  115.9219 C   0  0  0  0  0  0  0  0  0  0  0  0
   -8.4795  207.7775  114.8220 C   0  0  0  0  0  0  0  0  0  0  0  0
   -9.3393  207.5976  113.6119 C   0  0  0  0  0  0  0  0  0  0  0  0
  -10.5195  206.7377  113.9317 C   0  0  0  0  0  0  0  0  0  0  0  0
  -11.6695  207.5778  114.4116 C   0  0  0  0  0  0  0  0  0  0  0  0
  -12.9795  206.9279  113.9514 C   0  0  0  0  0  0  0  0  0  0  0  0
  -13.0892  207.0579  112.4614 C   0  0  0  0  0  0  0  0  0  0  0  0
  -14.3692  206.7180  111.9512 O   0  0  0  0  0  0  0  0  0  0  0  0
  -13.0196  205.4579  114.3614 C   0  0  0  0  0  0  0  0  0  0  0  0
   -7.1594  208.3773  114.3822 C   0  0  0  0  0  0  0  0  0  0  0  0
   -6.4093  207.6173  113.2723 C   0  0  0  0  0  0  0  0  0  0  0  0
   -4.9193  207.9371  113.5125 C   0  0  0  0  0  0  0  0  0  0  0  0
   -4.8294  208.7271  114.8426 C   0  0  0  0  0  0  0  0  0  0  0  0
   -6.1695  208.3872  115.5524 C   0  0  0  0  0  0  0  0  0  0  0  0
   -6.6996  209.3773  116.5723 C   0  0  0  0  0  0  0  0  0  0  0  0
   -8.0897  208.9574  116.9921 C   0  0  0  0  0  0  0  0  0  0  0  0
   -8.3699  208.9074  118.1821 O   0  0  0  0  0  0  0  0  0  0  0  0
   -6.0298  207.0072  116.1924 C   0  0  0  0  0  0  0  0  0  0  0  0
   -4.3691  208.6571  112.4226 O   0  0  0  0  0  0  0  0  0  0  0  0
   -7.3892  209.7674  113.8322 C   0  0  0  0  0  0  0  0  0  0  0  0
  -17.9593  206.5684  112.6507 C   0  0  0  0  0  0  0  0  0  0  0  0
  -16.6293  206.0683  112.1208 C   0  0  0  0  0  0  0  0  0  0  0  0
  -16.5695  204.5683  112.3708 C   0  0  0  0  0  0  0  0  0  0  0  0
   -3.5596  208.2970  115.5827 C   0  0  0  0  0  0  0  0  0  0  0  0
   -3.3797  209.0369  116.8928 C   0  0  0  0  0  0  0  0  0  0  0  0
   -1.0995  208.0667  115.0931 C   0  0  0  0  0  0  0  0  0  0  0  0
   -2.4294  208.5969  114.6929 N   0  0  0  0  0  0  0  0  0  0  0  0
  1  2  1  0  0  0  0
  1 15  1  0  0  0  0
  1 29  1  0  0  0  0
  2  3  1  0  0  0  0
  3  4  1  0  0  0  0
  3 13  1  0  0  0  0
  4  5  1  0  0  0  0
  5  6  1  0  0  0  0
  6  7  1  0  0  0  0
  6 12  1  0  0  0  0
  7  8  1  0  0  0  0
  8  9  1  0  0  0  0
  8 23  1  0  0  0  0
  9 10  1  0  0  0  0
  9 17  1  0  0  0  0
 10 11  1  0  0  0  0
 11 12  1  0  0  0  0
 12 13  1  0  0  0  0
 13 14  1  0  0  0  0
 13 16  1  0  0  0  0
 14 15  1  0  0  0  0
 17 18  1  0  0  0  0
 17 21  1  0  0  0  0
 17 27  1  0  0  0  0
 18 19  1  0  0  0  0
 19 20  1  0  0  0  0
 19 26  1  0  0  0  0
 20 21  1  0  0  0  0
 20 31  1  0  0  0  0
 21 22  1  0  0  0  0
 21 25  1  0  0  0  0
 22 23  1  0  0  0  0
 23 24  1  0  0  0  0
 28 29  1  0  0  0  0
 29 30  1  0  0  0  0
 31 32  1  0  0  0  0
 31 34  1  0  0  0  0
 33 34  1  0  0  0  0
M  END
$$$$
