step2_200_2000_5.0_21878.xyz.gro
  PyMOL2.5          3D                             0

 34 18  0  0  0  0  0  0  0  0999 V2000
   -6.4554  201.8072  108.7278 C   0  0  0  0  0  0  0  0  0  0  0  0
   -8.2680  201.9010  107.9464 N   0  0  0  0  0  0  0  0  0  0  0  0
   -8.9359  202.7802  107.7460 C   0  0  0  0  0  0  0  0  0  0  0  0
   -7.4518  203.0777  107.6475 C   0  0  0  0  0  0  0  0  0  0  0  0
   -9.9445  203.3988  106.1784 C   0  0  0  0  0  0  0  0  0  0  0  0
  -10.5613  202.4160  105.7455 C   0  0  0  0  0  0  0  0  0  0  0  0
  -10.1326  200.9513  103.7993 C   0  0  0  0  0  0  0  0  0  0  0  0
  -13.4310  203.6819  104.0444 C   0  0  0  0  0  0  0  0  0  0  0  0
  -12.9615  200.9350  104.1433 C   0  0  0  0  0  0  0  0  0  0  0  0
  -14.8567  204.5841  104.2477 C   0  0  0  0  0  0  0  0  0  0  0  0
  -11.5935  201.6000  107.8239 C   0  0  0  0  0  0  0  0  0  0  0  0
  -11.1053  202.5773  106.5075 C   0  0  0  0  0  0  0  0  0  0  0  0
   -8.7701  201.3057  107.3012 C   0  0  0  0  0  0  0  0  0  0  0  0
  -10.6536  203.0333  109.5435 C   0  0  0  0  0  0  0  0  0  0  0  0
   -8.1399  204.2124  108.6863 O   0  0  0  0  0  0  0  0  0  0  0  0
  -30.2577  186.9115  111.4061 C   0  0  0  0  0  0  0  0  0  0  0  0
  -14.0762  201.1041  104.7481 C   0  0  0  0  0  0  0  0  0  0  0  0
  -18.0986  205.2189  108.1811 C   0  0  0  0  0  0  0  0  0  0  0  0
  -19.9418  203.8639  107.6157 C   0  0  0  0  0  0  0  0  0  0  0  0
  -19.1745  204.3143  105.6501 C   0  0  0  0  0  0  0  0  0  0  0  0
  -16.4357  207.6836  103.2027 C   0  0  0  0  0  0  0  0  0  0  0  0
  -15.3188  204.1167  103.2219 C   0  0  0  0  0  0  0  0  0  0  0  0
  -12.2818  202.2648  104.0845 C   0  0  0  0  0  0  0  0  0  0  0  0
  -13.7807  201.5219  100.4749 O   0  0  0  0  0  0  0  0  0  0  0  0
  -21.0896  211.3453  103.6306 C   0  0  0  0  0  0  0  0  0  0  0  0
  -13.5506  207.5240  108.7993 O   0  0  0  0  0  0  0  0  0  0  0  0
   -6.5798  219.2852  124.0871 C   0  0  0  0  0  0  0  0  0  0  0  0
  -28.1647  211.4727  120.8753 C   0  0  0  0  0  0  0  0  0  0  0  0
  -17.1342  197.9052  110.9464 C   0  0  0  0  0  0  0  0  0  0  0  0
  -35.6278  203.2901  110.5953 C   0  0  0  0  0  0  0  0  0  0  0  0
   -5.8134  205.5039  110.1195 C   0  0  0  0  0  0  0  0  0  0  0  0
   -2.1616  203.8882  119.4684 C   0  0  0  0  0  0  0  0  0  0  0  0
    0.1094  208.4021  113.9886 C   0  0  0  0  0  0  0  0  0  0  0  0
    2.9497  205.3722  102.6968 N   0  0  0  0  0  0  0  0  0  0  0  0
  1  4  1  0  0  0  0
  2  3  1  0  0  0  0
  2  4  1  0  0  0  0
  2 13  1  0  0  0  0
  3  4  1  0  0  0  0
  3  5  1  0  0  0  0
  3 13  1  0  0  0  0
  3 15  1  0  0  0  0
  4 15  1  0  0  0  0
  5  6  1  0  0  0  0
  5 12  1  0  0  0  0
  6 12  1  0  0  0  0
  8 10  1  0  0  0  0
  8 23  1  0  0  0  0
  9 17  1  0  0  0  0
  9 23  1  0  0  0  0
 10 22  1  0  0  0  0
 11 12  1  0  0  0  0
M  END
$$$$
