@<TRIPOS>MOLECULE
ZINC14969940
 34 38 0 0 0
SMALL
USER_CHARGES

@<TRIPOS>ATOM
      1 C1        -16.9800  206.3400  112.4300 C.2     1  UNK01       0.0000
      2 N1        -16.7100  206.7100  113.6300 N.2     1  UNK01       0.0000
      3 C2        -15.3000  206.9300  113.9900 C.3     1  UNK01       0.0000
      4 C3        -15.1200  206.6600  115.4700 C.3     1  UNK01       0.0000
      5 C4        -13.6800  206.6700  115.8500 C.2     1  UNK01       0.0000
      6 C5        -12.6800  206.6500  114.9600 C.2     1  UNK01       0.0000
      7 C6        -11.2800  206.7200  115.4800 C.3     1  UNK01       0.0000
      8 C7        -10.3900  207.6400  114.6400 C.3     1  UNK01       0.0000
      9 C8         -9.7200  206.7900  113.5400 C.3     1  UNK01       0.0000
     10 C9        -10.6700  206.5000  112.3900 C.3     1  UNK01       0.0000
     11 C10       -11.8800  205.6800  112.8100 C.3     1  UNK01       0.0000
     12 C11       -12.9100  206.5700  113.4800 C.3     1  UNK01       0.0000
     13 C12       -14.3400  206.0900  113.1700 C.3     1  UNK01       0.0000
     14 C13       -14.7100  206.3400  111.7300 C.3     1  UNK01       0.0000
     15 O1        -16.0700  206.0100  111.4600 O.2     1  UNK01       0.0000
     16 C14       -14.4900  204.6000  113.4800 C.3     1  UNK01       0.0000
     17 C15        -8.4800  207.5100  113.0300 C.3     1  UNK01       0.0000
     18 C16        -7.6200  206.7400  112.0200 C.3     1  UNK01       0.0000
     19 C17        -6.2400  207.3700  112.0700 C.3     1  UNK01       0.0000
     20 C18        -6.1600  208.1400  113.4300 C.3     1  UNK01       0.0000
     21 C19        -7.5100  207.8100  114.1700 C.3     1  UNK01       0.0000
     22 C20        -8.1300  208.9000  115.0300 C.3     1  UNK01       0.0000
     23 C21        -9.4200  208.3400  115.5900 C.2     1  UNK01       0.0000
     24 O2         -9.5200  208.2000  116.7900 O.2     1  UNK01       0.0000
     25 C22        -7.3700  206.5700  115.0500 C.3     1  UNK01       0.0000
     26 O3         -6.0200  208.1000  110.8900 O.3     1  UNK01       0.0000
     27 C23        -8.9100  208.7900  112.3500 C.3     1  UNK01       0.0000
     28 C24       -18.8600  207.6400  111.4200 C.3     1  UNK01       0.0000
     29 C25       -18.4000  206.2900  111.9300 C.3     1  UNK01       0.0000
     30 C26       -19.3700  205.8200  112.9800 C.3     1  UNK01       0.0000
     31 C27        -4.9300  207.7700  114.2600 C.3     1  UNK01       0.0000
     32 C28        -4.0700  208.9800  114.5400 C.3     1  UNK01       0.0000
     33 C29        -3.3100  205.8700  114.5200 C.3     1  UNK01       0.0000
     34 N2         -4.0600  206.7500  113.6000 N.4     1  UNK01       0.0000
@<TRIPOS>UNITY_ATOM_ATTR
34 1
charge 1
@<TRIPOS>BOND
     1     1     2    2
     2     1    15    1
     3     1    29    1
     4     2     3    1
     5     3     4    1
     6     3    13    1
     7     4     5    1
     8     5     6    2
     9     6     7    1
    10     6    12    1
    11     7     8    1
    12     8     9    1
    13     8    23    1
    14     9    10    1
    15     9    17    1
    16    10    11    1
    17    11    12    1
    18    12    13    1
    19    13    14    1
    20    13    16    1
    21    14    15    1
    22    17    18    1
    23    17    21    1
    24    17    27    1
    25    18    19    1
    26    19    20    1
    27    19    26    1
    28    20    21    1
    29    20    31    1
    30    21    22    1
    31    21    25    1
    32    22    23    1
    33    23    24    2
    34    28    29    1
    35    29    30    1
    36    31    32    1
    37    31    34    1
    38    33    34    1
