@<TRIPOS>MOLECULE
ZINC14969940
 34 38 0 0 0
SMALL
USER_CHARGES

@<TRIPOS>ATOM
      1 C1        -13.1800  205.1600  112.2000 C.2     1  UNK01       0.0000
      2 N1        -13.5600  204.9400  113.4200 N.2     1  UNK01       0.0000
      3 C2        -12.7900  205.8000  114.3500 C.3     1  UNK01       0.0000
      4 C3        -13.2400  205.6300  115.7900 C.3     1  UNK01       0.0000
      5 C4        -12.2900  206.2200  116.7800 C.2     1  UNK01       0.0000
      6 C5        -11.0600  206.6200  116.4500 C.2     1  UNK01       0.0000
      7 C6        -10.1300  207.2000  117.4600 C.3     1  UNK01       0.0000
      8 C7         -9.4400  208.4700  116.9400 C.3     1  UNK01       0.0000
      9 C8         -8.0800  208.1300  116.2800 C.3     1  UNK01       0.0000
     10 C9         -8.2400  207.3800  114.9600 C.3     1  UNK01       0.0000
     11 C10        -9.1100  206.1500  115.1900 C.3     1  UNK01       0.0000
     12 C11       -10.5600  206.4800  115.0600 C.3     1  UNK01       0.0000
     13 C12       -11.3300  205.4300  114.2200 C.3     1  UNK01       0.0000
     14 C13       -10.9700  205.4600  112.7400 C.3     1  UNK01       0.0000
     15 O1        -11.9100  204.7500  111.9400 O.2     1  UNK01       0.0000
     16 C14       -11.1100  204.0000  114.7000 C.3     1  UNK01       0.0000
     17 C15        -7.2600  209.4400  116.2300 C.3     1  UNK01       0.0000
     18 C16        -5.8200  209.4200  115.7500 C.3     1  UNK01       0.0000
     19 C17        -4.9200  210.3900  116.4800 C.3     1  UNK01       0.0000
     20 C18        -5.8000  210.8400  117.6800 C.3     1  UNK01       0.0000
     21 C19        -7.0600  209.9000  117.7200 C.3     1  UNK01       0.0000
     22 C20        -8.3500  210.5300  118.1400 C.3     1  UNK01       0.0000
     23 C21        -9.3600  209.4100  118.1400 C.2     1  UNK01       0.0000
     24 O2         -9.8600  209.1100  119.2200 O.2     1  UNK01       0.0000
     25 C22        -6.7000  208.6700  118.6100 C.3     1  UNK01       0.0000
     26 O3         -4.5600  211.4700  115.6500 O.3     1  UNK01       0.0000
     27 C23        -7.9600  210.4400  115.3100 C.3     1  UNK01       0.0000
     28 C24       -12.8400  206.6900  110.2400 C.3     1  UNK01       0.0000
     29 C25       -13.3300  206.5700  111.6600 C.3     1  UNK01       0.0000
     30 C26       -14.7800  207.0000  111.7600 C.3     1  UNK01       0.0000
     31 C27        -4.9500  210.8900  118.9400 C.3     1  UNK01       0.0000
     32 C28        -5.7500  211.2800  120.1700 C.3     1  UNK01       0.0000
     33 C29        -2.8400  211.9400  119.7400 C.3     1  UNK01       0.0000
     34 N2         -3.9100  211.9100  118.7300 N.4     1  UNK01       0.0000
@<TRIPOS>UNITY_ATOM_ATTR
34 1
charge 1
@<TRIPOS>BOND
     1     1     2    2
     2     1    15    1
     3     1    29    1
     4     2     3    1
     5     3     4    1
     6     3    13    1
     7     4     5    1
     8     5     6    2
     9     6     7    1
    10     6    12    1
    11     7     8    1
    12     8     9    1
    13     8    23    1
    14     9    10    1
    15     9    17    1
    16    10    11    1
    17    11    12    1
    18    12    13    1
    19    13    14    1
    20    13    16    1
    21    14    15    1
    22    17    18    1
    23    17    21    1
    24    17    27    1
    25    18    19    1
    26    19    20    1
    27    19    26    1
    28    20    21    1
    29    20    31    1
    30    21    22    1
    31    21    25    1
    32    22    23    1
    33    23    24    2
    34    28    29    1
    35    29    30    1
    36    31    32    1
    37    31    34    1
    38    33    34    1
