@<TRIPOS>MOLECULE
ZINC14969940
 34 38 0 0 0
SMALL
USER_CHARGES

@<TRIPOS>ATOM
      1 C1        -15.5000  207.0600  112.1700 C.2     1  UNK01       0.0000
      2 N1        -15.6300  207.0800  113.4700 N.2     1  UNK01       0.0000
      3 C2        -14.3900  207.3700  114.2800 C.3     1  UNK01       0.0000
      4 C3        -14.4200  206.6800  115.6400 C.3     1  UNK01       0.0000
      5 C4        -13.0900  206.6900  116.3400 C.2     1  UNK01       0.0000
      6 C5        -11.9200  206.9900  115.7600 C.2     1  UNK01       0.0000
      7 C6        -10.6300  206.9300  116.5500 C.3     1  UNK01       0.0000
      8 C7         -9.5000  207.9000  116.1500 C.3     1  UNK01       0.0000
      9 C8         -8.7200  207.3800  114.9100 C.3     1  UNK01       0.0000
     10 C9         -9.4900  207.5400  113.6300 C.3     1  UNK01       0.0000
     11 C10       -10.7100  206.6700  113.6000 C.3     1  UNK01       0.0000
     12 C11       -11.8800  207.3600  114.3000 C.3     1  UNK01       0.0000
     13 C12       -13.1400  206.9500  113.5500 C.3     1  UNK01       0.0000
     14 C13       -13.2300  207.7200  112.2600 C.3     1  UNK01       0.0000
     15 O1        -14.3300  207.2600  111.5000 O.2     1  UNK01       0.0000
     16 C14       -13.1300  205.4500  113.3400 C.3     1  UNK01       0.0000
     17 C15        -7.4000  208.1100  114.7200 C.3     1  UNK01       0.0000
     18 C16        -6.5100  207.6600  113.5600 C.3     1  UNK01       0.0000
     19 C17        -5.1000  208.1600  113.9500 C.3     1  UNK01       0.0000
     20 C18        -5.0700  208.2500  115.5000 C.3     1  UNK01       0.0000
     21 C19        -6.5300  207.9200  115.9600 C.3     1  UNK01       0.0000
     22 C20        -7.1900  208.6700  117.1000 C.3     1  UNK01       0.0000
     23 C21        -8.5600  208.0900  117.3400 C.2     1  UNK01       0.0000
     24 O2         -8.9100  207.9400  118.5100 O.2     1  UNK01       0.0000
     25 C22        -6.4500  206.4400  116.3400 C.3     1  UNK01       0.0000
     26 O3         -4.8600  209.4100  113.3600 O.3     1  UNK01       0.0000
     27 C23        -7.7100  209.5800  114.4500 C.3     1  UNK01       0.0000
     28 C24       -16.8800  208.1500  110.4400 C.3     1  UNK01       0.0000
     29 C25       -16.6200  206.8700  111.1600 C.3     1  UNK01       0.0000
     30 C26       -17.9600  206.4100  111.6900 C.3     1  UNK01       0.0000
     31 C27        -4.3000  209.4300  116.1100 C.3     1  UNK01       0.0000
     32 C28        -4.9400  210.8200  116.0700 C.3     1  UNK01       0.0000
     33 C29        -1.9000  208.6700  115.8700 C.3     1  UNK01       0.0000
     34 N2         -3.0100  209.5500  115.4300 N.4     1  UNK01       0.0000
@<TRIPOS>UNITY_ATOM_ATTR
34 1
charge 1
@<TRIPOS>BOND
     1     1     2    2
     2     1    15    1
     3     1    29    1
     4     2     3    1
     5     3     4    1
     6     3    13    1
     7     4     5    1
     8     5     6    2
     9     6     7    1
    10     6    12    1
    11     7     8    1
    12     8     9    1
    13     8    23    1
    14     9    10    1
    15     9    17    1
    16    10    11    1
    17    11    12    1
    18    12    13    1
    19    13    14    1
    20    13    16    1
    21    14    15    1
    22    17    18    1
    23    17    21    1
    24    17    27    1
    25    18    19    1
    26    19    20    1
    27    19    26    1
    28    20    21    1
    29    20    31    1
    30    21    22    1
    31    21    25    1
    32    22    23    1
    33    23    24    2
    34    28    29    1
    35    29    30    1
    36    31    32    1
    37    31    34    1
    38    33    34    1
