# created with PyMOL 2.5.0
@<TRIPOS>MOLECULE
ZINC14969940
81 85 1                 
SMALL
USER_CHARGES
@<TRIPOS>ATOM
1	 H15	-13.370	208.790	112.460	 H	1	UNK0	0.000	
2	 H17	-12.750	204.940	114.230	 H	1	UNK0	0.000	
3	 H16	-12.500	205.170	112.490	 H	1	UNK0	0.000	
4	 H22	-4.470	207.390	115.800	 H	1	UNK0	0.000	
5	 H21	-4.340	207.470	113.580	 H	1	UNK0	0.000	
6	 H20	-6.520	206.570	113.510	 H	1	UNK0	0.000	
7	 H18	-14.120	205.040	113.160	 H	1	UNK0	0.000	
8	 H31	-7.990	209.730	113.410	 H	1	UNK0	0.000	
9	 H30	-6.840	210.200	114.650	 H	1	UNK0	0.000	
10	 H25	-6.060	205.850	115.500	 H	1	UNK0	0.000	
11	 H28	-5.260	209.440	112.470	 H	1	UNK0	0.000	
12	 H27	-7.400	205.990	116.630	 H	1	UNK0	0.000	
13	 H38	-17.850	205.490	112.230	 H	1	UNK0	0.000	
14	 H26	-5.760	206.300	117.180	 H	1	UNK0	0.000	
15	 H23	-7.350	209.720	116.870	 H	1	UNK0	0.000	
16	 H19	-6.840	208.070	112.600	 H	1	UNK0	0.000	
17	 H47	-3.180	209.490	114.410	 H	1	UNK0	0.000	
18	 H34	-15.960	208.690	110.260	 H	1	UNK0	0.000	
19	 H37	-18.640	206.260	110.850	 H	1	UNK0	0.000	
20	 H36	-18.390	207.130	112.370	 H	1	UNK0	0.000	
21	 H35	-16.270	206.130	110.440	 H	1	UNK0	0.000	
22	 H46	-2.630	210.540	115.440	 H	1	UNK0	0.000	
23	 H41	-4.310	211.540	116.580	 H	1	UNK0	0.000	
24	 H40	-5.880	210.840	116.600	 H	1	UNK0	0.000	
25	 H39	-4.070	209.210	117.160	 H	1	UNK0	0.000	
26	 H42	-5.100	211.180	115.050	 H	1	UNK0	0.000	
27	 H45	-1.130	208.690	115.110	 H	1	UNK0	0.000	
28	 H44	-2.300	207.660	115.980	 H	1	UNK0	0.000	
29	 H43	-1.540	209.060	116.830	 H	1	UNK0	0.000	
30	 H29	-8.530	209.940	115.060	 H	1	UNK0	0.000	
31	 H33	-17.550	208.790	111.030	 H	1	UNK0	0.000	
32	 H24	-6.600	208.590	118.010	 H	1	UNK0	0.000	
33	 H32	-17.390	207.950	109.490	 H	1	UNK0	0.000	
34	 H01	-14.350	208.450	114.450	 H	1	UNK0	0.000	
35	 H02	-14.760	205.650	115.540	 H	1	UNK0	0.000	
36	 H03	-15.150	207.190	116.280	 H	1	UNK0	0.000	
37	 H04	-13.100	206.410	117.390	 H	1	UNK0	0.000	
38	 H05	-10.230	205.910	116.460	 H	1	UNK0	0.000	
39	 H06	-10.870	207.060	117.610	 H	1	UNK0	0.000	
40	 H07	-9.940	208.870	115.930	 H	1	UNK0	0.000	
41	 H08	-8.520	206.310	115.030	 H	1	UNK0	0.000	
42	 H09	-8.850	207.240	112.800	 H	1	UNK0	0.000	
43	 H10	-9.760	208.580	113.470	 H	1	UNK0	0.000	
44	 H11	-10.490	205.690	114.030	 H	1	UNK0	0.000	
45	 H12	-10.950	206.510	112.550	 H	1	UNK0	0.000	
46	 H13	-11.770	208.440	114.250	 H	1	UNK0	0.000	
47	 H14	-12.330	207.620	111.660	 H	1	UNK0	0.000	
48	  C1	-15.500	207.060	112.170	C.2	1	UNK0	0.000	
49	  N1	-15.630	207.080	113.470	N.2	1	UNK0	0.000	
50	  C2	-14.390	207.370	114.280	C.3	1	UNK0	0.000	
51	  C3	-14.420	206.680	115.640	C.3	1	UNK0	0.000	
52	  C4	-13.090	206.690	116.340	C.2	1	UNK0	0.000	
53	  C5	-11.920	206.990	115.760	C.2	1	UNK0	0.000	
54	  C6	-10.630	206.930	116.550	C.3	1	UNK0	0.000	
55	  C7	-9.500	207.900	116.150	C.3	1	UNK0	0.000	
56	  C8	-8.720	207.380	114.910	C.3	1	UNK0	0.000	
57	  C9	-9.490	207.540	113.630	C.3	1	UNK0	0.000	
58	 C10	-10.710	206.670	113.600	C.3	1	UNK0	0.000	
59	 C11	-11.880	207.360	114.300	C.3	1	UNK0	0.000	
60	 C12	-13.140	206.950	113.550	C.3	1	UNK0	0.000	
61	 C13	-13.230	207.720	112.260	C.3	1	UNK0	0.000	
62	  O1	-14.330	207.260	111.500	O.3	1	UNK0	0.000	
63	 C14	-13.130	205.450	113.340	C.3	1	UNK0	0.000	
64	 C15	-7.400	208.110	114.720	C.3	1	UNK0	0.000	
65	 C16	-6.510	207.660	113.560	C.3	1	UNK0	0.000	
66	 C17	-5.100	208.160	113.950	C.3	1	UNK0	0.000	
67	 C18	-5.070	208.250	115.500	C.3	1	UNK0	0.000	
68	 C19	-6.530	207.920	115.960	C.3	1	UNK0	0.000	
69	 C20	-7.190	208.670	117.100	C.3	1	UNK0	0.000	
70	 C21	-8.560	208.090	117.340	C.2	1	UNK0	0.000	
71	  O2	-8.910	207.940	118.510	O.2	1	UNK0	0.000	
72	 C22	-6.450	206.440	116.340	C.3	1	UNK0	0.000	
73	  O3	-4.860	209.410	113.360	O.3	1	UNK0	0.000	
74	 C23	-7.710	209.580	114.450	C.3	1	UNK0	0.000	
75	 C24	-16.880	208.150	110.440	C.3	1	UNK0	0.000	
76	 C25	-16.620	206.870	111.160	C.3	1	UNK0	0.000	
77	 C26	-17.960	206.410	111.690	C.3	1	UNK0	0.000	
78	 C27	-4.300	209.430	116.110	C.3	1	UNK0	0.000	
79	 C28	-4.940	210.820	116.070	C.3	1	UNK0	0.000	
80	 C29	-1.900	208.670	115.870	C.3	1	UNK0	0.000	
81	  N2	-3.010	209.550	115.430	N.4	1	UNK0	0.000	
@<TRIPOS>BOND
1 48 49 2
2 48 62 1
3 48 76 1
4 49 50 1
5 34 50 1
6 50 51 1
7 50 60 1
8 35 51 1
9 36 51 1
10 51 52 1
11 37 52 1
12 52 53 2
13 53 54 1
14 53 59 1
15 38 54 1
16 39 54 1
17 54 55 1
18 40 55 1
19 55 56 1
20 55 70 1
21 41 56 1
22 56 57 1
23 56 64 1
24 42 57 1
25 43 57 1
26 57 58 1
27 44 58 1
28 45 58 1
29 58 59 1
30 46 59 1
31 59 60 1
32 60 61 1
33 60 63 1
34 1 61 1
35 47 61 1
36 61 62 1
37 2 63 1
38 3 63 1
39 7 63 1
40 64 65 1
41 64 68 1
42 64 74 1
43 6 65 1
44 16 65 1
45 65 66 1
46 5 66 1
47 66 67 1
48 66 73 1
49 4 67 1
50 67 68 1
51 67 78 1
52 68 69 1
53 68 72 1
54 15 69 1
55 32 69 1
56 69 70 1
57 70 71 2
58 10 72 1
59 12 72 1
60 14 72 1
61 11 73 1
62 8 74 1
63 9 74 1
64 30 74 1
65 18 75 1
66 31 75 1
67 33 75 1
68 75 76 1
69 21 76 1
70 76 77 1
71 13 77 1
72 19 77 1
73 20 77 1
74 25 78 1
75 78 79 1
76 78 81 1
77 23 79 1
78 24 79 1
79 26 79 1
80 27 80 1
81 28 80 1
82 29 80 1
83 80 81 1
84 17 81 1
85 22 81 1
@<TRIPOS>SUBSTRUCTURE
1	UNK0	1	GROUP	1 ****	UNK
