@<TRIPOS>MOLECULE
ZINC14969940
 34 38 0 0 0
SMALL
USER_CHARGES

@<TRIPOS>ATOM
      1 C1        -15.9600  206.2500  114.8100 C.2     1  UNK01       0.0000
      2 N1        -15.4600  206.8200  115.8600 N.2     1  UNK01       0.0000
      3 C2        -14.1000  207.3800  115.7300 C.3     1  UNK01       0.0000
      4 C3        -13.4900  207.5200  117.1200 C.3     1  UNK01       0.0000
      5 C4        -12.0100  207.5400  117.1300 C.2     1  UNK01       0.0000
      6 C5        -11.2400  207.3300  116.0500 C.2     1  UNK01       0.0000
      7 C6         -9.7600  207.1500  116.2600 C.3     1  UNK01       0.0000
      8 C7         -8.9100  208.0400  115.3700 C.3     1  UNK01       0.0000
      9 C8         -8.6200  207.3000  114.0500 C.3     1  UNK01       0.0000
     10 C9         -9.8500  207.2400  113.1700 C.3     1  UNK01       0.0000
     11 C10       -10.9500  206.3700  113.7400 C.3     1  UNK01       0.0000
     12 C11       -11.8500  207.1600  114.6900 C.3     1  UNK01       0.0000
     13 C12       -13.2400  206.5300  114.8000 C.3     1  UNK01       0.0000
     14 C13       -14.0000  206.5900  113.5000 C.3     1  UNK01       0.0000
     15 O1        -15.3200  206.0700  113.6100 O.2     1  UNK01       0.0000
     16 C14       -13.1200  205.0700  115.2500 C.3     1  UNK01       0.0000
     17 C15        -7.4800  208.0000  113.3100 C.3     1  UNK01       0.0000
     18 C16        -7.0600  207.3600  111.9900 C.3     1  UNK01       0.0000
     19 C17        -5.5300  207.5500  111.9000 C.3     1  UNK01       0.0000
     20 C18        -5.0900  208.3600  113.1400 C.3     1  UNK01       0.0000
     21 C19        -6.2000  207.9900  114.1700 C.3     1  UNK01       0.0000
     22 C20        -6.4400  208.9100  115.3500 C.3     1  UNK01       0.0000
     23 C21        -7.6400  208.4000  116.1200 C.2     1  UNK01       0.0000
     24 O2         -7.6000  208.3900  117.3500 O.2     1  UNK01       0.0000
     25 C22        -5.8800  206.5900  114.6900 C.3     1  UNK01       0.0000
     26 O3         -5.1700  208.1800  110.6700 O.3     1  UNK01       0.0000
     27 C23        -7.9200  209.4200  113.0000 C.3     1  UNK01       0.0000
     28 C24       -18.2600  206.1600  113.8500 C.3     1  UNK01       0.0000
     29 C25       -17.3000  205.5300  114.8400 C.3     1  UNK01       0.0000
     30 C26       -17.9100  205.5300  116.2300 C.3     1  UNK01       0.0000
     31 C27        -3.6500  208.0300  113.5500 C.3     1  UNK01       0.0000
     32 C28        -3.1600  208.9400  114.6700 C.3     1  UNK01       0.0000
     33 C29        -1.2900  208.0500  112.6900 C.3     1  UNK01       0.0000
     34 N2         -2.7300  208.1900  112.4000 N.4     1  UNK01       0.0000
@<TRIPOS>UNITY_ATOM_ATTR
34 1
charge 1
@<TRIPOS>BOND
     1     1     2    2
     2     1    15    1
     3     1    29    1
     4     2     3    1
     5     3     4    1
     6     3    13    1
     7     4     5    1
     8     5     6    2
     9     6     7    1
    10     6    12    1
    11     7     8    1
    12     8     9    1
    13     8    23    1
    14     9    10    1
    15     9    17    1
    16    10    11    1
    17    11    12    1
    18    12    13    1
    19    13    14    1
    20    13    16    1
    21    14    15    1
    22    17    18    1
    23    17    21    1
    24    17    27    1
    25    18    19    1
    26    19    20    1
    27    19    26    1
    28    20    21    1
    29    20    31    1
    30    21    22    1
    31    21    25    1
    32    22    23    1
    33    23    24    2
    34    28    29    1
    35    29    30    1
    36    31    32    1
    37    31    34    1
    38    33    34    1
