# created with PyMOL 2.5.0
@<TRIPOS>MOLECULE
ZINC14969940
81 85 1                 
SMALL
USER_CHARGES
@<TRIPOS>ATOM
1	 H15	-14.570	207.380	111.440	 H	1	UNK0	0.000	
2	 H17	-13.880	204.010	112.790	 H	1	UNK0	0.000	
3	 H16	-15.520	204.270	113.370	 H	1	UNK0	0.000	
4	 H22	-6.140	209.220	113.260	 H	1	UNK0	0.000	
5	 H21	-5.500	206.600	111.920	 H	1	UNK0	0.000	
6	 H20	-7.400	205.760	112.430	 H	1	UNK0	0.000	
7	 H18	-14.160	204.360	114.490	 H	1	UNK0	0.000	
8	 H31	-9.460	208.570	111.440	 H	1	UNK0	0.000	
9	 H30	-8.040	209.400	112.090	 H	1	UNK0	0.000	
10	 H25	-6.810	206.750	115.960	 H	1	UNK0	0.000	
11	 H28	-6.150	209.050	111.090	 H	1	UNK0	0.000	
12	 H27	-6.860	205.810	114.490	 H	1	UNK0	0.000	
13	 H38	-19.680	206.640	113.620	 H	1	UNK0	0.000	
14	 H26	-8.310	206.150	115.400	 H	1	UNK0	0.000	
15	 H23	-8.330	209.820	114.480	 H	1	UNK0	0.000	
16	 H19	-8.060	206.690	111.020	 H	1	UNK0	0.000	
17	 H47	-4.600	206.160	112.970	 H	1	UNK0	0.000	
18	 H34	-19.210	207.530	110.390	 H	1	UNK0	0.000	
19	 H37	-18.940	205.030	113.590	 H	1	UNK0	0.000	
20	 H36	-20.280	205.500	112.480	 H	1	UNK0	0.000	
21	 H35	-18.410	205.590	111.120	 H	1	UNK0	0.000	
22	 H46	-3.380	207.230	112.970	 H	1	UNK0	0.000	
23	 H41	-4.690	209.800	114.930	 H	1	UNK0	0.000	
24	 H40	-3.570	209.330	113.630	 H	1	UNK0	0.000	
25	 H39	-5.230	207.320	115.200	 H	1	UNK0	0.000	
26	 H42	-3.310	208.750	115.290	 H	1	UNK0	0.000	
27	 H45	-2.750	205.160	113.910	 H	1	UNK0	0.000	
28	 H44	-4.040	205.350	115.140	 H	1	UNK0	0.000	
29	 H43	-2.650	206.500	115.130	 H	1	UNK0	0.000	
30	 H29	-9.560	209.390	112.980	 H	1	UNK0	0.000	
31	 H33	-18.050	208.380	111.450	 H	1	UNK0	0.000	
32	 H24	-7.470	209.140	115.870	 H	1	UNK0	0.000	
33	 H32	-19.700	208.020	112.000	 H	1	UNK0	0.000	
34	 H01	-15.060	207.980	113.810	 H	1	UNK0	0.000	
35	 H02	-15.560	205.700	115.750	 H	1	UNK0	0.000	
36	 H03	-15.620	207.440	116.030	 H	1	UNK0	0.000	
37	 H04	-13.480	206.730	116.920	 H	1	UNK0	0.000	
38	 H05	-10.860	205.710	115.470	 H	1	UNK0	0.000	
39	 H06	-11.300	207.030	116.530	 H	1	UNK0	0.000	
40	 H07	-10.970	208.430	114.170	 H	1	UNK0	0.000	
41	 H08	-9.430	205.810	113.930	 H	1	UNK0	0.000	
42	 H09	-10.130	205.930	111.630	 H	1	UNK0	0.000	
43	 H10	-11.020	207.420	111.930	 H	1	UNK0	0.000	
44	 H11	-11.570	204.850	113.450	 H	1	UNK0	0.000	
45	 H12	-12.300	205.250	111.900	 H	1	UNK0	0.000	
46	 H13	-12.780	207.580	113.100	 H	1	UNK0	0.000	
47	 H14	-14.100	205.730	111.060	 H	1	UNK0	0.000	
48	  C1	-16.980	206.340	112.430	C.2	1	UNK0	0.000	
49	  N1	-16.710	206.710	113.630	N.2	1	UNK0	0.000	
50	  C2	-15.300	206.930	113.990	C.3	1	UNK0	0.000	
51	  C3	-15.120	206.660	115.470	C.3	1	UNK0	0.000	
52	  C4	-13.680	206.670	115.850	C.2	1	UNK0	0.000	
53	  C5	-12.680	206.650	114.960	C.2	1	UNK0	0.000	
54	  C6	-11.280	206.720	115.480	C.3	1	UNK0	0.000	
55	  C7	-10.390	207.640	114.640	C.3	1	UNK0	0.000	
56	  C8	-9.720	206.790	113.540	C.3	1	UNK0	0.000	
57	  C9	-10.670	206.500	112.390	C.3	1	UNK0	0.000	
58	 C10	-11.880	205.680	112.810	C.3	1	UNK0	0.000	
59	 C11	-12.910	206.570	113.480	C.3	1	UNK0	0.000	
60	 C12	-14.340	206.090	113.170	C.3	1	UNK0	0.000	
61	 C13	-14.710	206.340	111.730	C.3	1	UNK0	0.000	
62	  O1	-16.070	206.010	111.460	O.3	1	UNK0	0.000	
63	 C14	-14.490	204.600	113.480	C.3	1	UNK0	0.000	
64	 C15	-8.480	207.510	113.030	C.3	1	UNK0	0.000	
65	 C16	-7.620	206.740	112.020	C.3	1	UNK0	0.000	
66	 C17	-6.240	207.370	112.070	C.3	1	UNK0	0.000	
67	 C18	-6.160	208.140	113.430	C.3	1	UNK0	0.000	
68	 C19	-7.510	207.810	114.170	C.3	1	UNK0	0.000	
69	 C20	-8.130	208.900	115.030	C.3	1	UNK0	0.000	
70	 C21	-9.420	208.340	115.590	C.2	1	UNK0	0.000	
71	  O2	-9.520	208.200	116.790	O.2	1	UNK0	0.000	
72	 C22	-7.370	206.570	115.050	C.3	1	UNK0	0.000	
73	  O3	-6.020	208.100	110.890	O.3	1	UNK0	0.000	
74	 C23	-8.910	208.790	112.350	C.3	1	UNK0	0.000	
75	 C24	-18.860	207.640	111.420	C.3	1	UNK0	0.000	
76	 C25	-18.400	206.290	111.930	C.3	1	UNK0	0.000	
77	 C26	-19.370	205.820	112.980	C.3	1	UNK0	0.000	
78	 C27	-4.930	207.770	114.260	C.3	1	UNK0	0.000	
79	 C28	-4.070	208.980	114.540	C.3	1	UNK0	0.000	
80	 C29	-3.310	205.870	114.520	C.3	1	UNK0	0.000	
81	  N2	-4.060	206.750	113.600	N.4	1	UNK0	0.000	
@<TRIPOS>BOND
1 48 49 2
2 48 62 1
3 48 76 1
4 49 50 1
5 34 50 1
6 50 51 1
7 50 60 1
8 35 51 1
9 36 51 1
10 51 52 1
11 37 52 1
12 52 53 2
13 53 54 1
14 53 59 1
15 38 54 1
16 39 54 1
17 54 55 1
18 40 55 1
19 55 56 1
20 55 70 1
21 41 56 1
22 56 57 1
23 56 64 1
24 42 57 1
25 43 57 1
26 57 58 1
27 44 58 1
28 45 58 1
29 58 59 1
30 46 59 1
31 59 60 1
32 60 61 1
33 60 63 1
34 1 61 1
35 47 61 1
36 61 62 1
37 2 63 1
38 3 63 1
39 7 63 1
40 64 65 1
41 64 68 1
42 64 74 1
43 6 65 1
44 16 65 1
45 65 66 1
46 5 66 1
47 66 67 1
48 66 73 1
49 4 67 1
50 67 68 1
51 67 78 1
52 68 69 1
53 68 72 1
54 15 69 1
55 32 69 1
56 69 70 1
57 70 71 2
58 10 72 1
59 12 72 1
60 14 72 1
61 11 73 1
62 8 74 1
63 9 74 1
64 30 74 1
65 18 75 1
66 31 75 1
67 33 75 1
68 75 76 1
69 21 76 1
70 76 77 1
71 13 77 1
72 19 77 1
73 20 77 1
74 25 78 1
75 78 79 1
76 78 81 1
77 23 79 1
78 24 79 1
79 26 79 1
80 27 80 1
81 28 80 1
82 29 80 1
83 80 81 1
84 17 81 1
85 22 81 1
@<TRIPOS>SUBSTRUCTURE
1	UNK0	1	GROUP	1 ****	UNK
