@<TRIPOS>MOLECULE
ZINC14969940
 34 38 0 0 0
SMALL
USER_CHARGES

@<TRIPOS>ATOM
      1 C1        -14.1600  206.0200  113.3400 C.2     1  UNK01       0.0000
      2 N1        -14.3400  206.3000  114.6000 N.2     1  UNK01       0.0000
      3 C2        -13.1500  206.5900  115.4200 C.3     1  UNK01       0.0000
      4 C3        -13.3800  206.1600  116.8700 C.3     1  UNK01       0.0000
      5 C4        -12.1300  206.1900  117.6900 C.2     1  UNK01       0.0000
      6 C5        -10.9000  206.3200  117.1500 C.2     1  UNK01       0.0000
      7 C6         -9.6700  206.3800  118.0000 C.3     1  UNK01       0.0000
      8 C7         -8.7700  207.5400  117.5800 C.3     1  UNK01       0.0000
      9 C8         -7.7500  207.1600  116.4800 C.3     1  UNK01       0.0000
     10 C9         -8.3100  206.6900  115.1500 C.3     1  UNK01       0.0000
     11 C10        -9.4400  205.7000  115.2500 C.3     1  UNK01       0.0000
     12 C11       -10.7100  206.4200  115.6700 C.3     1  UNK01       0.0000
     13 C12       -11.9100  205.9100  114.8900 C.3     1  UNK01       0.0000
     14 C13       -11.8100  206.3600  113.4600 C.3     1  UNK01       0.0000
     15 O1        -12.9500  205.9600  112.7100 O.2     1  UNK01       0.0000
     16 C14       -12.0100  204.3900  114.9800 C.3     1  UNK01       0.0000
     17 C15        -6.8800  208.3800  116.2200 C.3     1  UNK01       0.0000
     18 C16        -5.8600  208.3600  115.0700 C.3     1  UNK01       0.0000
     19 C17        -4.7200  209.3000  115.5600 C.3     1  UNK01       0.0000
     20 C18        -5.1600  209.8000  116.9400 C.3     1  UNK01       0.0000
     21 C19        -6.0200  208.6500  117.4700 C.3     1  UNK01       0.0000
     22 C20        -6.9000  209.0000  118.6500 C.3     1  UNK01       0.0000
     23 C21        -8.0700  208.0700  118.8300 C.2     1  UNK01       0.0000
     24 O2         -8.6200  208.1200  119.9100 O.2     1  UNK01       0.0000
     25 C22        -5.1500  207.4500  117.8100 C.3     1  UNK01       0.0000
     26 O3         -4.5000  210.4300  114.7300 O.3     1  UNK01       0.0000
     27 C23        -7.7900  209.5700  115.9200 C.3     1  UNK01       0.0000
     28 C24       -16.2400  206.8600  112.3300 C.3     1  UNK01       0.0000
     29 C25       -15.2900  205.6800  112.4100 C.3     1  UNK01       0.0000
     30 C26       -16.0300  204.4500  112.9200 C.3     1  UNK01       0.0000
     31 C27        -3.9900  210.3600  117.7500 C.3     1  UNK01       0.0000
     32 C28        -4.2500  210.3700  119.2400 C.3     1  UNK01       0.0000
     33 C29        -2.7700  212.5600  117.9000 C.3     1  UNK01       0.0000
     34 N2         -3.8500  211.7600  117.2900 N.4     1  UNK01       0.0000
@<TRIPOS>UNITY_ATOM_ATTR
34 1
charge 1
@<TRIPOS>BOND
     1     1     2    2
     2     1    15    1
     3     1    29    1
     4     2     3    1
     5     3     4    1
     6     3    13    1
     7     4     5    1
     8     5     6    2
     9     6     7    1
    10     6    12    1
    11     7     8    1
    12     8     9    1
    13     8    23    1
    14     9    10    1
    15     9    17    1
    16    10    11    1
    17    11    12    1
    18    12    13    1
    19    13    14    1
    20    13    16    1
    21    14    15    1
    22    17    18    1
    23    17    21    1
    24    17    27    1
    25    18    19    1
    26    19    20    1
    27    19    26    1
    28    20    21    1
    29    20    31    1
    30    21    22    1
    31    21    25    1
    32    22    23    1
    33    23    24    2
    34    28    29    1
    35    29    30    1
    36    31    32    1
    37    31    34    1
    38    33    34    1
