# created with PyMOL 2.5.0
@<TRIPOS>MOLECULE
ZINC14969940
81 85 1                 
SMALL
USER_CHARGES
@<TRIPOS>ATOM
1	 H15	-14.270	210.140	114.300	 H	1	UNK0	0.000	
2	 H17	-14.130	205.930	113.190	 H	1	UNK0	0.000	
3	 H16	-14.160	206.710	111.880	 H	1	UNK0	0.000	
4	 H22	-5.400	210.210	113.080	 H	1	UNK0	0.000	
5	 H21	-6.560	211.700	111.470	 H	1	UNK0	0.000	
6	 H20	-7.560	210.080	110.670	 H	1	UNK0	0.000	
7	 H18	-15.630	206.410	112.930	 H	1	UNK0	0.000	
8	 H31	-9.350	208.920	111.270	 H	1	UNK0	0.000	
9	 H30	-8.380	208.680	112.240	 H	1	UNK0	0.000	
10	 H25	-5.850	206.780	114.550	 H	1	UNK0	0.000	
11	 H28	-4.090	208.360	112.830	 H	1	UNK0	0.000	
12	 H27	-5.100	207.120	113.060	 H	1	UNK0	0.000	
13	 H38	-17.630	212.430	112.910	 H	1	UNK0	0.000	
14	 H26	-6.820	206.620	113.090	 H	1	UNK0	0.000	
15	 H23	-7.790	209.410	115.410	 H	1	UNK0	0.000	
16	 H19	-8.980	211.010	111.210	 H	1	UNK0	0.000	
17	 H47	-4.500	209.560	110.170	 H	1	UNK0	0.000	
18	 H34	-19.720	211.720	110.360	 H	1	UNK0	0.000	
19	 H37	-19.000	212.000	114.010	 H	1	UNK0	0.000	
20	 H36	-19.300	212.550	112.390	 H	1	UNK0	0.000	
21	 H35	-19.490	210.130	113.020	 H	1	UNK0	0.000	
22	 H46	-5.080	208.550	109.060	 H	1	UNK0	0.000	
23	 H41	-5.640	206.780	109.760	 H	1	UNK0	0.000	
24	 H40	-6.240	206.410	111.330	 H	1	UNK0	0.000	
25	 H39	-7.190	208.360	110.640	 H	1	UNK0	0.000	
26	 H42	-4.580	207.020	111.120	 H	1	UNK0	0.000	
27	 H45	-6.240	211.170	109.680	 H	1	UNK0	0.000	
28	 H44	-6.450	210.160	108.200	 H	1	UNK0	0.000	
29	 H43	-4.900	210.880	108.550	 H	1	UNK0	0.000	
30	 H29	-9.290	210.250	112.750	 H	1	UNK0	0.000	
31	 H33	-17.670	210.010	110.290	 H	1	UNK0	0.000	
32	 H24	-6.770	208.100	115.710	 H	1	UNK0	0.000	
33	 H32	-18.110	209.950	111.990	 H	1	UNK0	0.000	
34	 H01	-15.010	208.770	115.510	 H	1	UNK0	0.000	
35	 H02	-15.410	205.850	114.900	 H	1	UNK0	0.000	
36	 H03	-15.100	206.680	116.410	 H	1	UNK0	0.000	
37	 H04	-13.020	205.360	115.760	 H	1	UNK0	0.000	
38	 H05	-10.790	205.990	113.460	 H	1	UNK0	0.000	
39	 H06	-10.700	205.690	115.150	 H	1	UNK0	0.000	
40	 H07	-10.310	208.380	115.320	 H	1	UNK0	0.000	
41	 H08	-10.150	207.540	112.390	 H	1	UNK0	0.000	
42	 H09	-10.880	209.890	112.020	 H	1	UNK0	0.000	
43	 H10	-11.140	209.950	113.770	 H	1	UNK0	0.000	
44	 H11	-11.970	207.600	111.940	 H	1	UNK0	0.000	
45	 H12	-12.720	209.130	111.910	 H	1	UNK0	0.000	
46	 H13	-12.650	208.960	114.570	 H	1	UNK0	0.000	
47	 H14	-13.910	210.140	112.770	 H	1	UNK0	0.000	
48	  C1	-17.090	209.620	113.600	C.2	1	UNK0	0.000	
49	  N1	-16.840	208.450	114.230	N.2	1	UNK0	0.000	
50	  C2	-15.330	208.070	114.740	C.3	1	UNK0	0.000	
51	  C3	-14.860	206.680	115.350	C.3	1	UNK0	0.000	
52	  C4	-13.340	206.300	115.310	C.2	1	UNK0	0.000	
53	  C5	-12.400	206.930	114.590	C.2	1	UNK0	0.000	
54	  C6	-10.940	206.480	114.440	C.3	1	UNK0	0.000	
55	  C7	-9.960	207.680	114.580	C.3	1	UNK0	0.000	
56	  C8	-9.800	208.320	113.250	C.3	1	UNK0	0.000	
57	  C9	-10.980	209.280	112.930	C.3	1	UNK0	0.000	
58	 C10	-12.180	208.460	112.580	C.3	1	UNK0	0.000	
59	 C11	-12.880	208.150	113.890	C.3	1	UNK0	0.000	
60	 C12	-14.380	208.160	113.610	C.3	1	UNK0	0.000	
61	 C13	-14.650	209.660	113.390	C.3	1	UNK0	0.000	
62	  O1	-15.980	210.250	113.260	O.3	1	UNK0	0.000	
63	 C14	-14.620	206.820	112.830	C.3	1	UNK0	0.000	
64	 C15	-8.160	209.180	113.090	C.3	1	UNK0	0.000	
65	 C16	-7.740	210.370	111.750	C.3	1	UNK0	0.000	
66	 C17	-5.960	210.510	112.030	C.3	1	UNK0	0.000	
67	 C18	-5.980	209.270	112.470	C.3	1	UNK0	0.000	
68	 C19	-6.490	208.680	113.700	C.3	1	UNK0	0.000	
69	 C20	-7.440	208.500	114.940	C.3	1	UNK0	0.000	
70	 C21	-8.520	207.340	114.910	C.2	1	UNK0	0.000	
71	  O2	-8.160	206.160	114.910	O.2	1	UNK0	0.000	
72	 C22	-6.050	207.230	113.570	C.3	1	UNK0	0.000	
73	  O3	-4.350	209.210	112.070	O.3	1	UNK0	0.000	
74	 C23	-8.810	209.480	112.020	C.3	1	UNK0	0.000	
75	 C24	-19.090	210.920	110.670	C.3	1	UNK0	0.000	
76	 C25	-18.570	210.530	112.520	C.3	1	UNK0	0.000	
77	 C26	-18.600	211.960	113.000	C.3	1	UNK0	0.000	
78	 C27	-6.160	208.530	110.930	C.3	1	UNK0	0.000	
79	 C28	-5.610	207.120	110.800	C.3	1	UNK0	0.000	
80	 C29	-5.790	210.450	109.010	C.3	1	UNK0	0.000	
81	  N2	-5.410	209.220	109.750	N.4	1	UNK0	0.000	
@<TRIPOS>BOND
1 48 49 2
2 48 62 1
3 48 76 1
4 49 50 1
5 34 50 1
6 50 51 1
7 50 60 1
8 35 51 1
9 36 51 1
10 51 52 1
11 37 52 1
12 52 53 2
13 53 54 1
14 53 59 1
15 38 54 1
16 39 54 1
17 54 55 1
18 40 55 1
19 55 56 1
20 55 70 1
21 41 56 1
22 56 57 1
23 56 64 1
24 42 57 1
25 43 57 1
26 57 58 1
27 44 58 1
28 45 58 1
29 58 59 1
30 46 59 1
31 59 60 1
32 60 61 1
33 60 63 1
34 1 61 1
35 47 61 1
36 61 62 1
37 2 63 1
38 3 63 1
39 7 63 1
40 64 65 1
41 64 68 1
42 64 74 1
43 6 65 1
44 16 65 1
45 65 66 1
46 5 66 1
47 66 67 1
48 66 73 1
49 4 67 1
50 67 68 1
51 67 78 1
52 68 69 1
53 68 72 1
54 15 69 1
55 32 69 1
56 69 70 1
57 70 71 2
58 10 72 1
59 12 72 1
60 14 72 1
61 11 73 1
62 8 74 1
63 9 74 1
64 30 74 1
65 18 75 1
66 31 75 1
67 33 75 1
68 75 76 1
69 21 76 1
70 76 77 1
71 13 77 1
72 19 77 1
73 20 77 1
74 25 78 1
75 78 79 1
76 78 81 1
77 23 79 1
78 24 79 1
79 26 79 1
80 27 80 1
81 28 80 1
82 29 80 1
83 80 81 1
84 17 81 1
85 22 81 1
@<TRIPOS>SUBSTRUCTURE
1	UNK0	1	GROUP	1 ****	UNK
