# created with PyMOL 2.5.0
@<TRIPOS>MOLECULE
ZINC14969940
81 85 1                 
SMALL
USER_CHARGES
@<TRIPOS>ATOM
1	 H15	-11.720	207.440	113.390	 H	1	UNK0	0.000	
2	 H17	-11.190	203.920	114.440	 H	1	UNK0	0.000	
3	 H16	-12.940	204.020	114.550	 H	1	UNK0	0.000	
4	 H22	-5.860	210.610	116.790	 H	1	UNK0	0.000	
5	 H21	-3.780	208.740	115.630	 H	1	UNK0	0.000	
6	 H20	-5.470	207.340	114.940	 H	1	UNK0	0.000	
7	 H18	-11.970	204.040	116.020	 H	1	UNK0	0.000	
8	 H31	-8.580	209.320	115.210	 H	1	UNK0	0.000	
9	 H30	-7.240	210.390	115.460	 H	1	UNK0	0.000	
10	 H25	-4.330	207.730	118.480	 H	1	UNK0	0.000	
11	 H28	-5.280	210.520	114.130	 H	1	UNK0	0.000	
12	 H27	-4.690	207.020	116.910	 H	1	UNK0	0.000	
13	 H38	-16.390	204.600	113.940	 H	1	UNK0	0.000	
14	 H26	-5.720	206.660	118.300	 H	1	UNK0	0.000	
15	 H23	-7.290	210.010	118.540	 H	1	UNK0	0.000	
16	 H19	-6.300	208.680	114.120	 H	1	UNK0	0.000	
17	 H47	-3.810	211.740	116.260	 H	1	UNK0	0.000	
18	 H34	-15.720	207.760	111.980	 H	1	UNK0	0.000	
19	 H37	-15.370	203.580	112.920	 H	1	UNK0	0.000	
20	 H36	-16.890	204.240	112.290	 H	1	UNK0	0.000	
21	 H35	-14.900	205.470	111.410	 H	1	UNK0	0.000	
22	 H46	-4.780	212.230	117.520	 H	1	UNK0	0.000	
23	 H41	-4.290	209.360	119.650	 H	1	UNK0	0.000	
24	 H40	-5.200	210.860	119.450	 H	1	UNK0	0.000	
25	 H39	-3.050	209.850	117.510	 H	1	UNK0	0.000	
26	 H42	-3.460	210.900	119.780	 H	1	UNK0	0.000	
27	 H45	-2.730	213.520	117.370	 H	1	UNK0	0.000	
28	 H44	-1.830	212.010	117.760	 H	1	UNK0	0.000	
29	 H43	-2.990	212.710	118.960	 H	1	UNK0	0.000	
30	 H29	-8.280	209.940	116.810	 H	1	UNK0	0.000	
31	 H33	-16.660	207.070	113.310	 H	1	UNK0	0.000	
32	 H24	-6.320	208.960	119.580	 H	1	UNK0	0.000	
33	 H32	-17.070	206.650	111.650	 H	1	UNK0	0.000	
34	 H01	-12.990	207.670	115.410	 H	1	UNK0	0.000	
35	 H02	-13.800	205.150	116.910	 H	1	UNK0	0.000	
36	 H03	-14.130	206.820	117.320	 H	1	UNK0	0.000	
37	 H04	-12.240	206.100	118.760	 H	1	UNK0	0.000	
38	 H05	-9.110	205.440	117.900	 H	1	UNK0	0.000	
39	 H06	-9.950	206.450	119.050	 H	1	UNK0	0.000	
40	 H07	-9.400	208.370	117.220	 H	1	UNK0	0.000	
41	 H08	-7.130	206.340	116.860	 H	1	UNK0	0.000	
42	 H09	-7.490	206.240	114.590	 H	1	UNK0	0.000	
43	 H10	-8.650	207.530	114.540	 H	1	UNK0	0.000	
44	 H11	-9.180	204.870	115.910	 H	1	UNK0	0.000	
45	 H12	-9.570	205.270	114.260	 H	1	UNK0	0.000	
46	 H13	-10.590	207.480	115.440	 H	1	UNK0	0.000	
47	 H14	-10.940	205.920	112.970	 H	1	UNK0	0.000	
48	  C1	-14.160	206.020	113.340	C.2	1	UNK0	0.000	
49	  N1	-14.340	206.300	114.600	N.2	1	UNK0	0.000	
50	  C2	-13.150	206.590	115.420	C.3	1	UNK0	0.000	
51	  C3	-13.380	206.160	116.870	C.3	1	UNK0	0.000	
52	  C4	-12.130	206.190	117.690	C.2	1	UNK0	0.000	
53	  C5	-10.900	206.320	117.150	C.2	1	UNK0	0.000	
54	  C6	-9.670	206.380	118.000	C.3	1	UNK0	0.000	
55	  C7	-8.770	207.540	117.580	C.3	1	UNK0	0.000	
56	  C8	-7.750	207.160	116.480	C.3	1	UNK0	0.000	
57	  C9	-8.310	206.690	115.150	C.3	1	UNK0	0.000	
58	 C10	-9.440	205.700	115.250	C.3	1	UNK0	0.000	
59	 C11	-10.710	206.420	115.670	C.3	1	UNK0	0.000	
60	 C12	-11.910	205.910	114.890	C.3	1	UNK0	0.000	
61	 C13	-11.810	206.360	113.460	C.3	1	UNK0	0.000	
62	  O1	-12.950	205.960	112.710	O.3	1	UNK0	0.000	
63	 C14	-12.010	204.390	114.980	C.3	1	UNK0	0.000	
64	 C15	-6.880	208.380	116.220	C.3	1	UNK0	0.000	
65	 C16	-5.860	208.360	115.070	C.3	1	UNK0	0.000	
66	 C17	-4.720	209.300	115.560	C.3	1	UNK0	0.000	
67	 C18	-5.160	209.800	116.940	C.3	1	UNK0	0.000	
68	 C19	-6.020	208.650	117.470	C.3	1	UNK0	0.000	
69	 C20	-6.900	209.000	118.650	C.3	1	UNK0	0.000	
70	 C21	-8.070	208.070	118.830	C.2	1	UNK0	0.000	
71	  O2	-8.620	208.120	119.910	O.2	1	UNK0	0.000	
72	 C22	-5.150	207.450	117.810	C.3	1	UNK0	0.000	
73	  O3	-4.500	210.430	114.730	O.3	1	UNK0	0.000	
74	 C23	-7.790	209.570	115.920	C.3	1	UNK0	0.000	
75	 C24	-16.240	206.860	112.330	C.3	1	UNK0	0.000	
76	 C25	-15.290	205.680	112.410	C.3	1	UNK0	0.000	
77	 C26	-16.030	204.450	112.920	C.3	1	UNK0	0.000	
78	 C27	-3.990	210.360	117.750	C.3	1	UNK0	0.000	
79	 C28	-4.250	210.370	119.240	C.3	1	UNK0	0.000	
80	 C29	-2.770	212.560	117.900	C.3	1	UNK0	0.000	
81	  N2	-3.850	211.760	117.290	N.4	1	UNK0	0.000	
@<TRIPOS>BOND
1 48 49 2
2 48 62 1
3 48 76 1
4 49 50 1
5 34 50 1
6 50 51 1
7 50 60 1
8 35 51 1
9 36 51 1
10 51 52 1
11 37 52 1
12 52 53 2
13 53 54 1
14 53 59 1
15 38 54 1
16 39 54 1
17 54 55 1
18 40 55 1
19 55 56 1
20 55 70 1
21 41 56 1
22 56 57 1
23 56 64 1
24 42 57 1
25 43 57 1
26 57 58 1
27 44 58 1
28 45 58 1
29 58 59 1
30 46 59 1
31 59 60 1
32 60 61 1
33 60 63 1
34 1 61 1
35 47 61 1
36 61 62 1
37 2 63 1
38 3 63 1
39 7 63 1
40 64 65 1
41 64 68 1
42 64 74 1
43 6 65 1
44 16 65 1
45 65 66 1
46 5 66 1
47 66 67 1
48 66 73 1
49 4 67 1
50 67 68 1
51 67 78 1
52 68 69 1
53 68 72 1
54 15 69 1
55 32 69 1
56 69 70 1
57 70 71 2
58 10 72 1
59 12 72 1
60 14 72 1
61 11 73 1
62 8 74 1
63 9 74 1
64 30 74 1
65 18 75 1
66 31 75 1
67 33 75 1
68 75 76 1
69 21 76 1
70 76 77 1
71 13 77 1
72 19 77 1
73 20 77 1
74 25 78 1
75 78 79 1
76 78 81 1
77 23 79 1
78 24 79 1
79 26 79 1
80 27 80 1
81 28 80 1
82 29 80 1
83 80 81 1
84 17 81 1
85 22 81 1
@<TRIPOS>SUBSTRUCTURE
1	UNK0	1	GROUP	1 ****	UNK
