# created with PyMOL 2.5.0
@<TRIPOS>MOLECULE
ZINC14969940
81 85 1                 
SMALL
USER_CHARGES
@<TRIPOS>ATOM
1	 H15	-13.650	207.850	115.140	 H	1	UNK0	0.000	
2	 H17	-12.810	204.280	115.760	 H	1	UNK0	0.000	
3	 H16	-13.780	204.560	117.200	 H	1	UNK0	0.000	
4	 H22	-6.150	208.450	112.010	 H	1	UNK0	0.000	
5	 H21	-5.340	205.590	112.440	 H	1	UNK0	0.000	
6	 H20	-7.560	205.220	112.840	 H	1	UNK0	0.000	
7	 H18	-12.030	204.510	117.330	 H	1	UNK0	0.000	
8	 H31	-7.980	209.480	112.910	 H	1	UNK0	0.000	
9	 H30	-8.350	208.360	111.630	 H	1	UNK0	0.000	
10	 H25	-6.390	206.270	115.670	 H	1	UNK0	0.000	
11	 H28	-4.820	205.920	110.580	 H	1	UNK0	0.000	
12	 H27	-4.830	206.960	115.340	 H	1	UNK0	0.000	
13	 H38	-18.690	207.150	117.900	 H	1	UNK0	0.000	
14	 H26	-5.480	205.680	114.310	 H	1	UNK0	0.000	
15	 H23	-6.960	209.780	114.390	 H	1	UNK0	0.000	
16	 H19	-8.090	206.270	111.520	 H	1	UNK0	0.000	
17	 H47	-2.990	206.480	112.710	 H	1	UNK0	0.000	
18	 H34	-18.710	205.700	115.980	 H	1	UNK0	0.000	
19	 H37	-17.580	208.300	117.140	 H	1	UNK0	0.000	
20	 H36	-17.200	207.620	118.720	 H	1	UNK0	0.000	
21	 H35	-16.970	205.360	117.740	 H	1	UNK0	0.000	
22	 H46	-2.240	207.970	112.610	 H	1	UNK0	0.000	
23	 H41	-4.720	208.770	110.470	 H	1	UNK0	0.000	
24	 H40	-3.530	207.480	110.570	 H	1	UNK0	0.000	
25	 H39	-4.110	209.270	112.980	 H	1	UNK0	0.000	
26	 H42	-3.040	209.140	110.810	 H	1	UNK0	0.000	
27	 H45	-1.650	207.910	114.510	 H	1	UNK0	0.000	
28	 H44	-2.910	206.740	114.980	 H	1	UNK0	0.000	
29	 H43	-3.310	208.510	114.850	 H	1	UNK0	0.000	
30	 H29	-9.480	208.610	112.910	 H	1	UNK0	0.000	
31	 H33	-17.220	205.010	115.310	 H	1	UNK0	0.000	
32	 H24	-5.510	209.250	115.240	 H	1	UNK0	0.000	
33	 H32	-17.590	206.720	115.070	 H	1	UNK0	0.000	
34	 H01	-13.160	208.200	117.420	 H	1	UNK0	0.000	
35	 H02	-12.700	205.750	119.180	 H	1	UNK0	0.000	
36	 H03	-12.680	207.430	119.660	 H	1	UNK0	0.000	
37	 H04	-10.320	206.870	119.430	 H	1	UNK0	0.000	
38	 H05	-8.500	206.070	117.060	 H	1	UNK0	0.000	
39	 H06	-8.580	207.570	117.950	 H	1	UNK0	0.000	
40	 H07	-9.370	208.540	115.470	 H	1	UNK0	0.000	
41	 H08	-8.150	205.850	114.950	 H	1	UNK0	0.000	
42	 H09	-9.850	205.780	113.210	 H	1	UNK0	0.000	
43	 H10	-10.510	207.320	113.740	 H	1	UNK0	0.000	
44	 H11	-10.250	204.950	115.570	 H	1	UNK0	0.000	
45	 H12	-11.630	205.330	114.550	 H	1	UNK0	0.000	
46	 H13	-11.250	207.820	115.800	 H	1	UNK0	0.000	
47	 H14	-13.410	206.280	114.370	 H	1	UNK0	0.000	
48	  C1	-15.470	206.580	116.870	C.2	1	UNK0	0.000	
49	  N1	-14.700	206.870	117.890	N.2	1	UNK0	0.000	
50	  C2	-13.270	207.130	117.620	C.3	1	UNK0	0.000	
51	  C3	-12.440	206.750	118.840	C.3	1	UNK0	0.000	
52	  C4	-10.970	206.810	118.560	C.2	1	UNK0	0.000	
53	  C5	-10.450	206.830	117.330	C.2	1	UNK0	0.000	
54	  C6	-8.990	207.050	117.080	C.3	1	UNK0	0.000	
55	  C7	-8.640	207.790	115.770	C.3	1	UNK0	0.000	
56	  C8	-8.580	206.790	114.600	C.3	1	UNK0	0.000	
57	  C9	-9.950	206.450	114.070	C.3	1	UNK0	0.000	
58	 C10	-10.800	205.770	115.100	C.3	1	UNK0	0.000	
59	 C11	-11.330	206.780	116.130	C.3	1	UNK0	0.000	
60	 C12	-12.770	206.360	116.440	C.3	1	UNK0	0.000	
61	 C13	-13.690	206.770	115.310	C.3	1	UNK0	0.000	
62	  O1	-15.040	206.410	115.580	O.3	1	UNK0	0.000	
63	 C14	-12.850	204.850	116.700	C.3	1	UNK0	0.000	
64	 C15	-7.740	207.300	113.450	C.3	1	UNK0	0.000	
65	 C16	-7.430	206.210	112.390	C.3	1	UNK0	0.000	
66	 C17	-5.940	206.400	112.020	C.3	1	UNK0	0.000	
67	 C18	-5.580	207.760	112.630	C.3	1	UNK0	0.000	
68	 C19	-6.340	207.700	113.980	C.3	1	UNK0	0.000	
69	 C20	-6.480	208.930	114.860	C.3	1	UNK0	0.000	
70	 C21	-7.350	208.560	116.030	C.2	1	UNK0	0.000	
71	  O2	-7.030	208.940	117.150	O.2	1	UNK0	0.000	
72	 C22	-5.740	206.590	114.860	C.3	1	UNK0	0.000	
73	  O3	-5.720	206.350	110.620	O.3	1	UNK0	0.000	
74	 C23	-8.420	208.490	112.710	C.3	1	UNK0	0.000	
75	 C24	-17.650	205.900	115.780	C.3	1	UNK0	0.000	
76	 C25	-16.930	206.230	117.080	C.3	1	UNK0	0.000	
77	 C26	-17.640	207.390	117.750	C.3	1	UNK0	0.000	
78	 C27	-4.160	208.300	112.490	C.3	1	UNK0	0.000	
79	 C28	-3.840	208.430	111.010	C.3	1	UNK0	0.000	
80	 C29	-2.710	207.680	114.460	C.3	1	UNK0	0.000	
81	  N2	-3.060	207.490	113.050	N.4	1	UNK0	0.000	
@<TRIPOS>BOND
1 48 49 2
2 48 62 1
3 48 76 1
4 49 50 1
5 34 50 1
6 50 51 1
7 50 60 1
8 35 51 1
9 36 51 1
10 51 52 1
11 37 52 1
12 52 53 2
13 53 54 1
14 53 59 1
15 38 54 1
16 39 54 1
17 54 55 1
18 40 55 1
19 55 56 1
20 55 70 1
21 41 56 1
22 56 57 1
23 56 64 1
24 42 57 1
25 43 57 1
26 57 58 1
27 44 58 1
28 45 58 1
29 58 59 1
30 46 59 1
31 59 60 1
32 60 61 1
33 60 63 1
34 1 61 1
35 47 61 1
36 61 62 1
37 2 63 1
38 3 63 1
39 7 63 1
40 64 65 1
41 64 68 1
42 64 74 1
43 6 65 1
44 16 65 1
45 65 66 1
46 5 66 1
47 66 67 1
48 66 73 1
49 4 67 1
50 67 68 1
51 67 78 1
52 68 69 1
53 68 72 1
54 15 69 1
55 32 69 1
56 69 70 1
57 70 71 2
58 10 72 1
59 12 72 1
60 14 72 1
61 11 73 1
62 8 74 1
63 9 74 1
64 30 74 1
65 18 75 1
66 31 75 1
67 33 75 1
68 75 76 1
69 21 76 1
70 76 77 1
71 13 77 1
72 19 77 1
73 20 77 1
74 25 78 1
75 78 79 1
76 78 81 1
77 23 79 1
78 24 79 1
79 26 79 1
80 27 80 1
81 28 80 1
82 29 80 1
83 80 81 1
84 17 81 1
85 22 81 1
@<TRIPOS>SUBSTRUCTURE
1	UNK0	1	GROUP	1 ****	UNK
