# created with PyMOL 2.5.0
@<TRIPOS>MOLECULE
ZINC14969940
81 85 1                 
SMALL
USER_CHARGES
@<TRIPOS>ATOM
1	 H15	-13.560	208.840	113.290	 H	1	UNK0	0.000	
2	 H17	-12.720	205.220	113.640	 H	1	UNK0	0.000	
3	 H16	-14.330	205.220	114.330	 H	1	UNK0	0.000	
4	 H22	-4.880	209.460	115.380	 H	1	UNK0	0.000	
5	 H21	-4.680	207.190	113.410	 H	1	UNK0	0.000	
6	 H20	-6.900	206.750	113.500	 H	1	UNK0	0.000	
7	 H18	-12.930	205.120	115.390	 H	1	UNK0	0.000	
8	 H31	-8.140	210.220	115.530	 H	1	UNK0	0.000	
9	 H30	-8.280	209.950	113.830	 H	1	UNK0	0.000	
10	 H25	-6.220	205.950	115.490	 H	1	UNK0	0.000	
11	 H28	-5.250	209.960	113.310	 H	1	UNK0	0.000	
12	 H27	-7.270	206.270	116.870	 H	1	UNK0	0.000	
13	 H38	-17.770	205.440	114.420	 H	1	UNK0	0.000	
14	 H26	-5.540	206.430	117.090	 H	1	UNK0	0.000	
15	 H23	-6.630	209.900	116.960	 H	1	UNK0	0.000	
16	 H19	-7.140	208.300	112.670	 H	1	UNK0	0.000	
17	 H47	-4.290	205.670	115.780	 H	1	UNK0	0.000	
18	 H34	-19.060	207.660	112.500	 H	1	UNK0	0.000	
19	 H37	-18.340	205.120	112.780	 H	1	UNK0	0.000	
20	 H36	-16.650	204.770	113.240	 H	1	UNK0	0.000	
21	 H35	-16.950	206.880	111.860	 H	1	UNK0	0.000	
22	 H46	-3.480	206.080	114.370	 H	1	UNK0	0.000	
23	 H41	-2.440	208.330	114.110	 H	1	UNK0	0.000	
24	 H40	-1.590	208.170	115.660	 H	1	UNK0	0.000	
25	 H39	-3.680	207.770	116.860	 H	1	UNK0	0.000	
26	 H42	-2.640	209.560	115.370	 H	1	UNK0	0.000	
27	 H45	-2.360	204.590	115.730	 H	1	UNK0	0.000	
28	 H44	-2.220	205.900	116.960	 H	1	UNK0	0.000	
29	 H43	-1.460	206.100	115.330	 H	1	UNK0	0.000	
30	 H29	-6.690	210.290	114.530	 H	1	UNK0	0.000	
31	 H33	-17.960	208.850	113.220	 H	1	UNK0	0.000	
32	 H24	-6.140	208.570	118.010	 H	1	UNK0	0.000	
33	 H32	-18.700	207.570	114.210	 H	1	UNK0	0.000	
34	 H01	-14.200	208.750	115.540	 H	1	UNK0	0.000	
35	 H02	-14.500	206.010	116.830	 H	1	UNK0	0.000	
36	 H03	-14.830	207.570	117.550	 H	1	UNK0	0.000	
37	 H04	-12.600	206.880	118.380	 H	1	UNK0	0.000	
38	 H05	-9.950	206.300	117.030	 H	1	UNK0	0.000	
39	 H06	-10.390	207.520	118.200	 H	1	UNK0	0.000	
40	 H07	-9.760	209.210	116.220	 H	1	UNK0	0.000	
41	 H08	-8.530	206.560	115.380	 H	1	UNK0	0.000	
42	 H09	-9.130	207.410	113.140	 H	1	UNK0	0.000	
43	 H10	-9.950	208.770	113.890	 H	1	UNK0	0.000	
44	 H11	-10.560	205.910	114.710	 H	1	UNK0	0.000	
45	 H12	-11.220	206.620	113.250	 H	1	UNK0	0.000	
46	 H13	-11.820	208.660	114.880	 H	1	UNK0	0.000	
47	 H14	-12.800	207.470	112.480	 H	1	UNK0	0.000	
48	  C1	-15.830	207.280	113.630	C.2	1	UNK0	0.000	
49	  N1	-15.710	207.420	114.920	N.2	1	UNK0	0.000	
50	  C2	-14.340	207.670	115.450	C.3	1	UNK0	0.000	
51	  C3	-14.180	207.050	116.840	C.3	1	UNK0	0.000	
52	  C4	-12.760	207.110	117.320	C.2	1	UNK0	0.000	
53	  C5	-11.710	207.360	116.530	C.2	1	UNK0	0.000	
54	  C6	-10.320	207.320	117.120	C.3	1	UNK0	0.000	
55	  C7	-9.290	208.260	116.490	C.3	1	UNK0	0.000	
56	  C8	-8.700	207.620	115.220	C.3	1	UNK0	0.000	
57	  C9	-9.640	207.740	114.050	C.3	1	UNK0	0.000	
58	 C10	-10.840	206.860	114.240	C.3	1	UNK0	0.000	
59	 C11	-11.900	207.580	115.060	C.3	1	UNK0	0.000	
60	 C12	-13.260	207.120	114.560	C.3	1	UNK0	0.000	
61	 C13	-13.550	207.750	113.220	C.3	1	UNK0	0.000	
62	  O1	-14.800	207.310	112.730	O.3	1	UNK0	0.000	
63	 C14	-13.320	205.590	114.480	C.3	1	UNK0	0.000	
64	 C15	-7.400	208.290	114.860	C.3	1	UNK0	0.000	
65	 C16	-6.730	207.820	113.560	C.3	1	UNK0	0.000	
66	 C17	-5.230	208.060	113.760	C.3	1	UNK0	0.000	
67	 C18	-5.010	208.380	115.260	C.3	1	UNK0	0.000	
68	 C19	-6.360	208.030	115.950	C.3	1	UNK0	0.000	
69	 C20	-6.770	208.840	117.160	C.3	1	UNK0	0.000	
70	 C21	-8.230	208.600	117.540	C.2	1	UNK0	0.000	
71	  O2	-8.590	208.970	118.650	O.2	1	UNK0	0.000	
72	 C22	-6.350	206.580	116.370	C.3	1	UNK0	0.000	
73	  O3	-4.790	209.160	112.980	O.3	1	UNK0	0.000	
74	 C23	-7.630	209.780	114.680	C.3	1	UNK0	0.000	
75	 C24	-18.260	207.800	113.240	C.3	1	UNK0	0.000	
76	 C25	-17.110	206.870	112.940	C.3	1	UNK0	0.000	
77	 C26	-17.490	205.470	113.370	C.3	1	UNK0	0.000	
78	 C27	-3.710	207.730	115.770	C.3	1	UNK0	0.000	
79	 C28	-2.530	208.490	115.190	C.3	1	UNK0	0.000	
80	 C29	-2.300	205.670	115.890	C.3	1	UNK0	0.000	
81	  N2	-3.550	206.280	115.390	N.4	1	UNK0	0.000	
@<TRIPOS>BOND
1 48 49 2
2 48 62 1
3 48 76 1
4 49 50 1
5 34 50 1
6 50 51 1
7 50 60 1
8 35 51 1
9 36 51 1
10 51 52 1
11 37 52 1
12 52 53 2
13 53 54 1
14 53 59 1
15 38 54 1
16 39 54 1
17 54 55 1
18 40 55 1
19 55 56 1
20 55 70 1
21 41 56 1
22 56 57 1
23 56 64 1
24 42 57 1
25 43 57 1
26 57 58 1
27 44 58 1
28 45 58 1
29 58 59 1
30 46 59 1
31 59 60 1
32 60 61 1
33 60 63 1
34 1 61 1
35 47 61 1
36 61 62 1
37 2 63 1
38 3 63 1
39 7 63 1
40 64 65 1
41 64 68 1
42 64 74 1
43 6 65 1
44 16 65 1
45 65 66 1
46 5 66 1
47 66 67 1
48 66 73 1
49 4 67 1
50 67 68 1
51 67 78 1
52 68 69 1
53 68 72 1
54 15 69 1
55 32 69 1
56 69 70 1
57 70 71 2
58 10 72 1
59 12 72 1
60 14 72 1
61 11 73 1
62 8 74 1
63 9 74 1
64 30 74 1
65 18 75 1
66 31 75 1
67 33 75 1
68 75 76 1
69 21 76 1
70 76 77 1
71 13 77 1
72 19 77 1
73 20 77 1
74 25 78 1
75 78 79 1
76 78 81 1
77 23 79 1
78 24 79 1
79 26 79 1
80 27 80 1
81 28 80 1
82 29 80 1
83 80 81 1
84 17 81 1
85 22 81 1
@<TRIPOS>SUBSTRUCTURE
1	UNK0	1	GROUP	1 ****	UNK
