# created with PyMOL 2.5.0
@<TRIPOS>MOLECULE
ZINC14969940
81 85 1                 
SMALL
USER_CHARGES
@<TRIPOS>ATOM
1	 H15	-14.060	207.620	113.130	 H	1	UNK0	0.000	
2	 H17	-14.080	204.630	115.540	 H	1	UNK0	0.000	
3	 H16	-12.460	204.960	116.110	 H	1	UNK0	0.000	
4	 H22	-5.130	209.430	112.930	 H	1	UNK0	0.000	
5	 H21	-5.070	206.560	111.910	 H	1	UNK0	0.000	
6	 H20	-7.290	206.290	112.000	 H	1	UNK0	0.000	
7	 H18	-12.720	204.450	114.440	 H	1	UNK0	0.000	
8	 H31	-8.570	209.450	112.120	 H	1	UNK0	0.000	
9	 H30	-7.060	210.050	112.800	 H	1	UNK0	0.000	
10	 H25	-6.660	206.180	115.330	 H	1	UNK0	0.000	
11	 H28	-5.410	209.140	110.770	 H	1	UNK0	0.000	
12	 H27	-4.970	206.620	115.290	 H	1	UNK0	0.000	
13	 H38	-18.890	205.060	116.210	 H	1	UNK0	0.000	
14	 H26	-5.730	205.910	113.860	 H	1	UNK0	0.000	
15	 H23	-6.610	209.940	115.010	 H	1	UNK0	0.000	
16	 H19	-7.590	207.790	111.130	 H	1	UNK0	0.000	
17	 H47	-2.920	207.410	111.720	 H	1	UNK0	0.000	
18	 H34	-19.240	205.690	113.930	 H	1	UNK0	0.000	
19	 H37	-18.020	206.550	116.610	 H	1	UNK0	0.000	
20	 H36	-17.280	204.980	116.930	 H	1	UNK0	0.000	
21	 H35	-17.120	204.490	114.540	 H	1	UNK0	0.000	
22	 H46	-2.820	209.100	111.870	 H	1	UNK0	0.000	
23	 H41	-3.760	208.800	115.570	 H	1	UNK0	0.000	
24	 H40	-3.220	209.990	114.380	 H	1	UNK0	0.000	
25	 H39	-3.550	206.990	113.850	 H	1	UNK0	0.000	
26	 H42	-2.130	208.720	114.960	 H	1	UNK0	0.000	
27	 H45	-0.760	208.090	111.730	 H	1	UNK0	0.000	
28	 H44	-1.140	207.080	113.170	 H	1	UNK0	0.000	
29	 H43	-0.980	208.870	113.340	 H	1	UNK0	0.000	
30	 H29	-8.440	209.910	113.820	 H	1	UNK0	0.000	
31	 H33	-17.890	206.030	112.830	 H	1	UNK0	0.000	
32	 H24	-5.600	208.910	116.040	 H	1	UNK0	0.000	
33	 H32	-18.370	207.230	114.040	 H	1	UNK0	0.000	
34	 H01	-14.180	208.380	115.300	 H	1	UNK0	0.000	
35	 H02	-13.810	206.690	117.760	 H	1	UNK0	0.000	
36	 H03	-13.870	208.430	117.580	 H	1	UNK0	0.000	
37	 H04	-11.540	207.640	118.110	 H	1	UNK0	0.000	
38	 H05	-9.510	206.100	116.060	 H	1	UNK0	0.000	
39	 H06	-9.520	207.300	117.310	 H	1	UNK0	0.000	
40	 H07	-9.430	208.980	115.180	 H	1	UNK0	0.000	
41	 H08	-8.330	206.270	114.260	 H	1	UNK0	0.000	
42	 H09	-9.560	206.820	112.200	 H	1	UNK0	0.000	
43	 H10	-10.230	208.250	112.970	 H	1	UNK0	0.000	
44	 H11	-10.540	205.480	114.230	 H	1	UNK0	0.000	
45	 H12	-11.540	206.010	112.900	 H	1	UNK0	0.000	
46	 H13	-11.980	208.160	114.260	 H	1	UNK0	0.000	
47	 H14	-13.500	206.000	112.730	 H	1	UNK0	0.000	
48	  C1	-15.960	206.250	114.810	C.2	1	UNK0	0.000	
49	  N1	-15.460	206.820	115.860	N.2	1	UNK0	0.000	
50	  C2	-14.100	207.380	115.730	C.3	1	UNK0	0.000	
51	  C3	-13.490	207.520	117.120	C.3	1	UNK0	0.000	
52	  C4	-12.010	207.540	117.130	C.2	1	UNK0	0.000	
53	  C5	-11.240	207.330	116.050	C.2	1	UNK0	0.000	
54	  C6	-9.760	207.150	116.260	C.3	1	UNK0	0.000	
55	  C7	-8.910	208.040	115.370	C.3	1	UNK0	0.000	
56	  C8	-8.620	207.300	114.050	C.3	1	UNK0	0.000	
57	  C9	-9.850	207.240	113.170	C.3	1	UNK0	0.000	
58	 C10	-10.950	206.370	113.740	C.3	1	UNK0	0.000	
59	 C11	-11.850	207.160	114.690	C.3	1	UNK0	0.000	
60	 C12	-13.240	206.530	114.800	C.3	1	UNK0	0.000	
61	 C13	-14.000	206.590	113.500	C.3	1	UNK0	0.000	
62	  O1	-15.320	206.070	113.610	O.3	1	UNK0	0.000	
63	 C14	-13.120	205.070	115.250	C.3	1	UNK0	0.000	
64	 C15	-7.480	208.000	113.310	C.3	1	UNK0	0.000	
65	 C16	-7.060	207.360	111.990	C.3	1	UNK0	0.000	
66	 C17	-5.530	207.550	111.900	C.3	1	UNK0	0.000	
67	 C18	-5.090	208.360	113.140	C.3	1	UNK0	0.000	
68	 C19	-6.200	207.990	114.170	C.3	1	UNK0	0.000	
69	 C20	-6.440	208.910	115.350	C.3	1	UNK0	0.000	
70	 C21	-7.640	208.400	116.120	C.2	1	UNK0	0.000	
71	  O2	-7.600	208.390	117.350	O.2	1	UNK0	0.000	
72	 C22	-5.880	206.590	114.690	C.3	1	UNK0	0.000	
73	  O3	-5.170	208.180	110.670	O.3	1	UNK0	0.000	
74	 C23	-7.920	209.420	113.000	C.3	1	UNK0	0.000	
75	 C24	-18.260	206.160	113.850	C.3	1	UNK0	0.000	
76	 C25	-17.300	205.530	114.840	C.3	1	UNK0	0.000	
77	 C26	-17.910	205.530	116.230	C.3	1	UNK0	0.000	
78	 C27	-3.650	208.030	113.550	C.3	1	UNK0	0.000	
79	 C28	-3.160	208.940	114.670	C.3	1	UNK0	0.000	
80	 C29	-1.290	208.050	112.690	C.3	1	UNK0	0.000	
81	  N2	-2.730	208.190	112.400	N.4	1	UNK0	0.000	
@<TRIPOS>BOND
1 48 49 2
2 48 62 1
3 48 76 1
4 49 50 1
5 34 50 1
6 50 51 1
7 50 60 1
8 35 51 1
9 36 51 1
10 51 52 1
11 37 52 1
12 52 53 2
13 53 54 1
14 53 59 1
15 38 54 1
16 39 54 1
17 54 55 1
18 40 55 1
19 55 56 1
20 55 70 1
21 41 56 1
22 56 57 1
23 56 64 1
24 42 57 1
25 43 57 1
26 57 58 1
27 44 58 1
28 45 58 1
29 58 59 1
30 46 59 1
31 59 60 1
32 60 61 1
33 60 63 1
34 1 61 1
35 47 61 1
36 61 62 1
37 2 63 1
38 3 63 1
39 7 63 1
40 64 65 1
41 64 68 1
42 64 74 1
43 6 65 1
44 16 65 1
45 65 66 1
46 5 66 1
47 66 67 1
48 66 73 1
49 4 67 1
50 67 68 1
51 67 78 1
52 68 69 1
53 68 72 1
54 15 69 1
55 32 69 1
56 69 70 1
57 70 71 2
58 10 72 1
59 12 72 1
60 14 72 1
61 11 73 1
62 8 74 1
63 9 74 1
64 30 74 1
65 18 75 1
66 31 75 1
67 33 75 1
68 75 76 1
69 21 76 1
70 76 77 1
71 13 77 1
72 19 77 1
73 20 77 1
74 25 78 1
75 78 79 1
76 78 81 1
77 23 79 1
78 24 79 1
79 26 79 1
80 27 80 1
81 28 80 1
82 29 80 1
83 80 81 1
84 17 81 1
85 22 81 1
@<TRIPOS>SUBSTRUCTURE
1	UNK0	1	GROUP	1 ****	UNK
