@<TRIPOS>MOLECULE
ZINC14969940
 34 38 0 0 0
SMALL
USER_CHARGES

@<TRIPOS>ATOM
      1 C1        -15.4700  206.5800  116.8700 C.2     1  UNK01       0.0000
      2 N1        -14.7000  206.8700  117.8900 N.2     1  UNK01       0.0000
      3 C2        -13.2700  207.1300  117.6200 C.3     1  UNK01       0.0000
      4 C3        -12.4400  206.7500  118.8400 C.3     1  UNK01       0.0000
      5 C4        -10.9700  206.8100  118.5600 C.2     1  UNK01       0.0000
      6 C5        -10.4500  206.8300  117.3300 C.2     1  UNK01       0.0000
      7 C6         -8.9900  207.0500  117.0800 C.3     1  UNK01       0.0000
      8 C7         -8.6400  207.7900  115.7700 C.3     1  UNK01       0.0000
      9 C8         -8.5800  206.7900  114.6000 C.3     1  UNK01       0.0000
     10 C9         -9.9500  206.4500  114.0700 C.3     1  UNK01       0.0000
     11 C10       -10.8000  205.7700  115.1000 C.3     1  UNK01       0.0000
     12 C11       -11.3300  206.7800  116.1300 C.3     1  UNK01       0.0000
     13 C12       -12.7700  206.3600  116.4400 C.3     1  UNK01       0.0000
     14 C13       -13.6900  206.7700  115.3100 C.3     1  UNK01       0.0000
     15 O1        -15.0400  206.4100  115.5800 O.2     1  UNK01       0.0000
     16 C14       -12.8500  204.8500  116.7000 C.3     1  UNK01       0.0000
     17 C15        -7.7400  207.3000  113.4500 C.3     1  UNK01       0.0000
     18 C16        -7.4300  206.2100  112.3900 C.3     1  UNK01       0.0000
     19 C17        -5.9400  206.4000  112.0200 C.3     1  UNK01       0.0000
     20 C18        -5.5800  207.7600  112.6300 C.3     1  UNK01       0.0000
     21 C19        -6.3400  207.7000  113.9800 C.3     1  UNK01       0.0000
     22 C20        -6.4800  208.9300  114.8600 C.3     1  UNK01       0.0000
     23 C21        -7.3500  208.5600  116.0300 C.2     1  UNK01       0.0000
     24 O2         -7.0300  208.9400  117.1500 O.2     1  UNK01       0.0000
     25 C22        -5.7400  206.5900  114.8600 C.3     1  UNK01       0.0000
     26 O3         -5.7200  206.3500  110.6200 O.3     1  UNK01       0.0000
     27 C23        -8.4200  208.4900  112.7100 C.3     1  UNK01       0.0000
     28 C24       -17.6500  205.9000  115.7800 C.3     1  UNK01       0.0000
     29 C25       -16.9300  206.2300  117.0800 C.3     1  UNK01       0.0000
     30 C26       -17.6400  207.3900  117.7500 C.3     1  UNK01       0.0000
     31 C27        -4.1600  208.3000  112.4900 C.3     1  UNK01       0.0000
     32 C28        -3.8400  208.4300  111.0100 C.3     1  UNK01       0.0000
     33 C29        -2.7100  207.6800  114.4600 C.3     1  UNK01       0.0000
     34 N2         -3.0600  207.4900  113.0500 N.4     1  UNK01       0.0000
@<TRIPOS>UNITY_ATOM_ATTR
34 1
charge 1
@<TRIPOS>BOND
     1     1     2    2
     2     1    15    1
     3     1    29    1
     4     2     3    1
     5     3     4    1
     6     3    13    1
     7     4     5    1
     8     5     6    2
     9     6     7    1
    10     6    12    1
    11     7     8    1
    12     8     9    1
    13     8    23    1
    14     9    10    1
    15     9    17    1
    16    10    11    1
    17    11    12    1
    18    12    13    1
    19    13    14    1
    20    13    16    1
    21    14    15    1
    22    17    18    1
    23    17    21    1
    24    17    27    1
    25    18    19    1
    26    19    20    1
    27    19    26    1
    28    20    21    1
    29    20    31    1
    30    21    22    1
    31    21    25    1
    32    22    23    1
    33    23    24    2
    34    28    29    1
    35    29    30    1
    36    31    32    1
    37    31    34    1
    38    33    34    1
