@<TRIPOS>MOLECULE
ZINC14969940
 34 38 0 0 0
SMALL
USER_CHARGES

@<TRIPOS>ATOM
      1 C1        -15.3100  205.2700  115.5000 C.2     1  UNK01       0.0000
      2 N1        -14.6700  205.2200  116.6300 N.2     1  UNK01       0.0000
      3 C2        -13.2800  205.7200  116.6500 C.3     1  UNK01       0.0000
      4 C3        -12.5000  204.9600  117.7100 C.3     1  UNK01       0.0000
      5 C4        -11.0300  205.2200  117.6300 C.2     1  UNK01       0.0000
      6 C5        -10.4300  205.7600  116.5500 C.2     1  UNK01       0.0000
      7 C6         -8.9600  206.0400  116.5800 C.3     1  UNK01       0.0000
      8 C7         -8.5300  207.2800  115.7800 C.3     1  UNK01       0.0000
      9 C8         -8.3200  206.8800  114.3100 C.3     1  UNK01       0.0000
     10 C9         -9.6200  206.7900  113.5400 C.3     1  UNK01       0.0000
     11 C10       -10.5000  205.6900  114.0600 C.3     1  UNK01       0.0000
     12 C11       -11.2100  206.1400  115.3300 C.3     1  UNK01       0.0000
     13 C12       -12.6200  205.5400  115.3100 C.3     1  UNK01       0.0000
     14 C13       -13.5000  206.3000  114.3600 C.3     1  UNK01       0.0000
     15 O1        -14.8100  205.7400  114.3200 O.2     1  UNK01       0.0000
     16 C14       -12.5400  204.0700  114.9200 C.3     1  UNK01       0.0000
     17 C15        -7.4400  207.8800  113.6000 C.3     1  UNK01       0.0000
     18 C16        -7.1000  207.5500  112.1400 C.3     1  UNK01       0.0000
     19 C17        -5.7200  208.1900  111.8900 C.3     1  UNK01       0.0000
     20 C18        -5.2200  208.7300  113.2600 C.3     1  UNK01       0.0000
     21 C19        -6.0700  207.9500  114.2900 C.3     1  UNK01       0.0000
     22 C20        -6.2700  208.6100  115.6400 C.3     1  UNK01       0.0000
     23 C21        -7.2800  207.8300  116.4500 C.2     1  UNK01       0.0000
     24 O2         -7.1600  207.7700  117.6700 O.2     1  UNK01       0.0000
     25 C22        -5.4700  206.5600  114.4700 C.3     1  UNK01       0.0000
     26 O3         -4.8600  207.1700  111.4000 O.3     1  UNK01       0.0000
     27 C23        -8.1300  209.2400  113.5500 C.3     1  UNK01       0.0000
     28 C24       -17.6900  205.6600  114.8800 C.3     1  UNK01       0.0000
     29 C25       -16.6700  204.6300  115.3000 C.3     1  UNK01       0.0000
     30 C26       -17.1300  203.9200  116.5500 C.3     1  UNK01       0.0000
     31 C27        -3.6900  208.6900  113.4000 C.3     1  UNK01       0.0000
     32 C28        -3.2600  209.1000  114.7900 C.3     1  UNK01       0.0000
     33 C29        -2.4500  209.1300  111.2800 C.3     1  UNK01       0.0000
     34 N2         -3.1100  209.6800  112.4700 N.4     1  UNK01       0.0000
@<TRIPOS>UNITY_ATOM_ATTR
34 1
charge 1
@<TRIPOS>BOND
     1     1     2    2
     2     1    15    1
     3     1    29    1
     4     2     3    1
     5     3     4    1
     6     3    13    1
     7     4     5    1
     8     5     6    2
     9     6     7    1
    10     6    12    1
    11     7     8    1
    12     8     9    1
    13     8    23    1
    14     9    10    1
    15     9    17    1
    16    10    11    1
    17    11    12    1
    18    12    13    1
    19    13    14    1
    20    13    16    1
    21    14    15    1
    22    17    18    1
    23    17    21    1
    24    17    27    1
    25    18    19    1
    26    19    20    1
    27    19    26    1
    28    20    21    1
    29    20    31    1
    30    21    22    1
    31    21    25    1
    32    22    23    1
    33    23    24    2
    34    28    29    1
    35    29    30    1
    36    31    32    1
    37    31    34    1
    38    33    34    1
