step2_200_2000_5.0_4094.xyz.gro
  PyMOL2.5          3D                             0

 34 38  0  0  0  0  0  0  0  0999 V2000
  -15.9605  206.2469  114.8099 C   0  0  0  0  0  0  0  0  0  0  0  0
  -15.4604  206.8170  115.8599 N   0  0  0  0  0  0  0  0  0  0  0  0
  -14.1004  207.3768  115.7299 C   0  0  0  0  0  0  0  0  0  0  0  0
  -13.4904  207.5169  117.1199 C   0  0  0  0  0  0  0  0  0  0  0  0
  -12.0104  207.5368  117.1300 C   0  0  0  0  0  0  0  0  0  0  0  0
  -11.2404  207.3266  116.0500 C   0  0  0  0  0  0  0  0  0  0  0  0
   -9.7604  207.1464  116.2601 C   0  0  0  0  0  0  0  0  0  0  0  0
   -8.9103  208.0362  115.3700 C   0  0  0  0  0  0  0  0  0  0  0  0
   -8.6203  207.2960  114.0501 C   0  0  0  0  0  0  0  0  0  0  0  0
   -9.8503  207.2361  113.1701 C   0  0  0  0  0  0  0  0  0  0  0  0
  -10.9504  206.3662  113.7402 C   0  0  0  0  0  0  0  0  0  0  0  0
  -11.8504  207.1564  114.6900 C   0  0  0  0  0  0  0  0  0  0  0  0
  -13.2404  206.5266  114.8000 C   0  0  0  0  0  0  0  0  0  0  0  0
  -14.0004  206.5865  113.5000 C   0  0  0  0  0  0  0  0  0  0  0  0
  -15.3204  206.0667  113.6100 O   0  0  0  0  0  0  0  0  0  0  0  0
  -13.1206  205.0667  115.2502 C   0  0  0  0  0  0  0  0  0  0  0  0
   -7.4802  207.9958  113.3101 C   0  0  0  0  0  0  0  0  0  0  0  0
   -7.0602  207.3556  111.9902 C   0  0  0  0  0  0  0  0  0  0  0  0
   -5.5302  207.5454  111.9002 C   0  0  0  0  0  0  0  0  0  0  0  0
   -5.0902  208.3556  113.1402 C   0  0  0  0  0  0  0  0  0  0  0  0
   -6.2002  207.9858  114.1702 C   0  0  0  0  0  0  0  0  0  0  0  0
   -6.4402  208.9060  115.3500 C   0  0  0  0  0  0  0  0  0  0  0  0
   -7.6403  208.3962  116.1200 C   0  0  0  0  0  0  0  0  0  0  0  0
   -7.6004  208.3864  117.3500 O   0  0  0  0  0  0  0  0  0  0  0  0
   -5.8804  206.5858  114.6904 C   0  0  0  0  0  0  0  0  0  0  0  0
   -5.1701  208.1753  110.6702 O   0  0  0  0  0  0  0  0  0  0  0  0
   -7.9200  209.4158  112.9999 C   0  0  0  0  0  0  0  0  0  0  0  0
  -18.2604  206.1570  113.8498 C   0  0  0  0  0  0  0  0  0  0  0  0
  -17.3005  205.5270  114.8400 C   0  0  0  0  0  0  0  0  0  0  0  0
  -17.9106  205.5273  116.2299 C   0  0  0  0  0  0  0  0  0  0  0  0
   -3.6502  208.0255  113.5503 C   0  0  0  0  0  0  0  0  0  0  0  0
   -3.1602  208.9356  114.6702 C   0  0  0  0  0  0  0  0  0  0  0  0
   -1.2902  208.0451  112.6904 C   0  0  0  0  0  0  0  0  0  0  0  0
   -2.7301  208.1852  112.4003 N   0  0  0  0  0  0  0  0  0  0  0  0
  1  2  1  0  0  0  0
  1 15  1  0  0  0  0
  1 29  1  0  0  0  0
  2  3  1  0  0  0  0
  3  4  1  0  0  0  0
  3 13  1  0  0  0  0
  4  5  1  0  0  0  0
  5  6  1  0  0  0  0
  6  7  1  0  0  0  0
  6 12  1  0  0  0  0
  7  8  1  0  0  0  0
  8  9  1  0  0  0  0
  8 23  1  0  0  0  0
  9 10  1  0  0  0  0
  9 17  1  0  0  0  0
 10 11  1  0  0  0  0
 11 12  1  0  0  0  0
 12 13  1  0  0  0  0
 13 14  1  0  0  0  0
 13 16  1  0  0  0  0
 14 15  1  0  0  0  0
 17 18  1  0  0  0  0
 17 21  1  0  0  0  0
 17 27  1  0  0  0  0
 18 19  1  0  0  0  0
 19 20  1  0  0  0  0
 19 26  1  0  0  0  0
 20 21  1  0  0  0  0
 20 31  1  0  0  0  0
 21 22  1  0  0  0  0
 21 25  1  0  0  0  0
 22 23  1  0  0  0  0
 23 24  1  0  0  0  0
 28 29  1  0  0  0  0
 29 30  1  0  0  0  0
 31 32  1  0  0  0  0
 31 34  1  0  0  0  0
 33 34  1  0  0  0  0
M  END
$$$$
