# created with PyMOL 2.5.0
@<TRIPOS>MOLECULE
ZINC14969940
81 85 1                 
SMALL
USER_CHARGES
@<TRIPOS>ATOM
1	 H15	-10.870	206.480	112.350	 H	1	UNK0	0.000	
2	 H17	-11.030	203.930	115.780	 H	1	UNK0	0.000	
3	 H16	-11.910	203.330	114.370	 H	1	UNK0	0.000	
4	 H22	-6.150	211.820	117.450	 H	1	UNK0	0.000	
5	 H21	-4.000	209.870	116.810	 H	1	UNK0	0.000	
6	 H20	-5.660	209.030	116.680	 H	1	UNK0	0.000	
7	 H18	-10.210	203.610	114.240	 H	1	UNK0	0.000	
8	 H31	-8.970	210.680	115.630	 H	1	UNK0	0.000	
9	 H30	-8.020	210.030	114.300	 H	1	UNK0	0.000	
10	 H25	-6.190	208.950	119.530	 H	1	UNK0	0.000	
11	 H28	-5.370	211.880	115.290	 H	1	UNK0	0.000	
12	 H27	-7.550	208.060	118.930	 H	1	UNK0	0.000	
13	 H38	-15.200	206.790	112.740	 H	1	UNK0	0.000	
14	 H26	-6.050	207.950	118.110	 H	1	UNK0	0.000	
15	 H23	-8.670	211.320	117.480	 H	1	UNK0	0.000	
16	 H19	-5.420	208.650	115.070	 H	1	UNK0	0.000	
17	 H47	-3.470	211.850	117.800	 H	1	UNK0	0.000	
18	 H34	-13.180	207.630	109.800	 H	1	UNK0	0.000	
19	 H37	-15.400	206.480	111.030	 H	1	UNK0	0.000	
20	 H36	-14.880	208.070	111.580	 H	1	UNK0	0.000	
21	 H35	-12.730	207.260	112.260	 H	1	UNK0	0.000	
22	 H46	-4.420	212.830	118.640	 H	1	UNK0	0.000	
23	 H41	-6.640	210.670	120.310	 H	1	UNK0	0.000	
24	 H40	-6.080	212.320	120.120	 H	1	UNK0	0.000	
25	 H39	-4.430	209.940	119.090	 H	1	UNK0	0.000	
26	 H42	-5.150	211.180	121.080	 H	1	UNK0	0.000	
27	 H45	-2.380	212.930	119.730	 H	1	UNK0	0.000	
28	 H44	-2.120	211.160	119.480	 H	1	UNK0	0.000	
29	 H43	-3.270	211.740	120.720	 H	1	UNK0	0.000	
30	 H29	-7.380	211.360	115.230	 H	1	UNK0	0.000	
31	 H33	-13.190	205.850	109.630	 H	1	UNK0	0.000	
32	 H24	-8.280	210.940	119.150	 H	1	UNK0	0.000	
33	 H32	-11.750	206.670	110.200	 H	1	UNK0	0.000	
34	 H01	-12.900	206.860	114.110	 H	1	UNK0	0.000	
35	 H02	-13.380	204.570	116.030	 H	1	UNK0	0.000	
36	 H03	-14.200	206.130	115.910	 H	1	UNK0	0.000	
37	 H04	-12.610	206.320	117.810	 H	1	UNK0	0.000	
38	 H05	-9.360	206.480	117.760	 H	1	UNK0	0.000	
39	 H06	-10.680	207.360	118.390	 H	1	UNK0	0.000	
40	 H07	-10.070	208.970	116.200	 H	1	UNK0	0.000	
41	 H08	-7.560	207.400	116.910	 H	1	UNK0	0.000	
42	 H09	-7.260	207.080	114.620	 H	1	UNK0	0.000	
43	 H10	-8.670	208.010	114.180	 H	1	UNK0	0.000	
44	 H11	-8.840	205.700	116.130	 H	1	UNK0	0.000	
45	 H12	-9.010	205.320	114.540	 H	1	UNK0	0.000	
46	 H13	-10.650	207.430	114.540	 H	1	UNK0	0.000	
47	 H14	-10.030	204.970	112.560	 H	1	UNK0	0.000	
48	  C1	-13.180	205.160	112.200	C.2	1	UNK0	0.000	
49	  N1	-13.560	204.940	113.420	N.2	1	UNK0	0.000	
50	  C2	-12.790	205.800	114.350	C.3	1	UNK0	0.000	
51	  C3	-13.240	205.630	115.790	C.3	1	UNK0	0.000	
52	  C4	-12.290	206.220	116.780	C.2	1	UNK0	0.000	
53	  C5	-11.060	206.620	116.450	C.2	1	UNK0	0.000	
54	  C6	-10.130	207.200	117.460	C.3	1	UNK0	0.000	
55	  C7	-9.440	208.470	116.940	C.3	1	UNK0	0.000	
56	  C8	-8.080	208.130	116.280	C.3	1	UNK0	0.000	
57	  C9	-8.240	207.380	114.960	C.3	1	UNK0	0.000	
58	 C10	-9.110	206.150	115.190	C.3	1	UNK0	0.000	
59	 C11	-10.560	206.480	115.060	C.3	1	UNK0	0.000	
60	 C12	-11.330	205.430	114.220	C.3	1	UNK0	0.000	
61	 C13	-10.970	205.460	112.740	C.3	1	UNK0	0.000	
62	  O1	-11.910	204.750	111.940	O.3	1	UNK0	0.000	
63	 C14	-11.110	204.000	114.700	C.3	1	UNK0	0.000	
64	 C15	-7.260	209.440	116.230	C.3	1	UNK0	0.000	
65	 C16	-5.820	209.420	115.750	C.3	1	UNK0	0.000	
66	 C17	-4.920	210.390	116.480	C.3	1	UNK0	0.000	
67	 C18	-5.800	210.840	117.680	C.3	1	UNK0	0.000	
68	 C19	-7.060	209.900	117.720	C.3	1	UNK0	0.000	
69	 C20	-8.350	210.530	118.140	C.3	1	UNK0	0.000	
70	 C21	-9.360	209.410	118.140	C.2	1	UNK0	0.000	
71	  O2	-9.860	209.110	119.220	O.2	1	UNK0	0.000	
72	 C22	-6.700	208.670	118.610	C.3	1	UNK0	0.000	
73	  O3	-4.560	211.470	115.650	O.3	1	UNK0	0.000	
74	 C23	-7.960	210.440	115.310	C.3	1	UNK0	0.000	
75	 C24	-12.840	206.690	110.240	C.3	1	UNK0	0.000	
76	 C25	-13.330	206.570	111.660	C.3	1	UNK0	0.000	
77	 C26	-14.780	207.000	111.760	C.3	1	UNK0	0.000	
78	 C27	-4.950	210.890	118.940	C.3	1	UNK0	0.000	
79	 C28	-5.750	211.280	120.170	C.3	1	UNK0	0.000	
80	 C29	-2.840	211.940	119.740	C.3	1	UNK0	0.000	
81	  N2	-3.910	211.910	118.730	N.4	1	UNK0	0.000	
@<TRIPOS>BOND
1 48 49 2
2 48 62 1
3 48 76 1
4 49 50 1
5 34 50 1
6 50 51 1
7 50 60 1
8 35 51 1
9 36 51 1
10 51 52 1
11 37 52 1
12 52 53 2
13 53 54 1
14 53 59 1
15 38 54 1
16 39 54 1
17 54 55 1
18 40 55 1
19 55 56 1
20 55 70 1
21 41 56 1
22 56 57 1
23 56 64 1
24 42 57 1
25 43 57 1
26 57 58 1
27 44 58 1
28 45 58 1
29 58 59 1
30 46 59 1
31 59 60 1
32 60 61 1
33 60 63 1
34 1 61 1
35 47 61 1
36 61 62 1
37 2 63 1
38 3 63 1
39 7 63 1
40 64 65 1
41 64 68 1
42 64 74 1
43 6 65 1
44 16 65 1
45 65 66 1
46 5 66 1
47 66 67 1
48 66 73 1
49 4 67 1
50 67 68 1
51 67 78 1
52 68 69 1
53 68 72 1
54 15 69 1
55 32 69 1
56 69 70 1
57 70 71 2
58 10 72 1
59 12 72 1
60 14 72 1
61 11 73 1
62 8 74 1
63 9 74 1
64 30 74 1
65 18 75 1
66 31 75 1
67 33 75 1
68 75 76 1
69 21 76 1
70 76 77 1
71 13 77 1
72 19 77 1
73 20 77 1
74 25 78 1
75 78 79 1
76 78 81 1
77 23 79 1
78 24 79 1
79 26 79 1
80 27 80 1
81 28 80 1
82 29 80 1
83 80 81 1
84 17 81 1
85 22 81 1
@<TRIPOS>SUBSTRUCTURE
1	UNK0	1	GROUP	1 ****	UNK
