step2_200_2000_5.0_27766.xyz.gro
  PyMOL2.5          3D                             0

 34 38  0  0  0  0  0  0  0  0999 V2000
  -15.5062  207.0574  112.1701 C   0  0  0  0  0  0  0  0  0  0  0  0
  -15.6361  207.0775  113.4701 N   0  0  0  0  0  0  0  0  0  0  0  0
  -14.3959  207.3674  114.2799 C   0  0  0  0  0  0  0  0  0  0  0  0
  -14.4259  206.6776  115.6400 C   0  0  0  0  0  0  0  0  0  0  0  0
  -13.0958  206.6875  116.3398 C   0  0  0  0  0  0  0  0  0  0  0  0
  -11.9258  206.9872  115.7597 C   0  0  0  0  0  0  0  0  0  0  0  0
  -10.6357  206.9271  116.5495 C   0  0  0  0  0  0  0  0  0  0  0  0
   -9.5056  207.8969  116.1493 C   0  0  0  0  0  0  0  0  0  0  0  0
   -8.7259  207.3767  114.9092 C   0  0  0  0  0  0  0  0  0  0  0  0
   -9.4960  207.5366  113.6293 C   0  0  0  0  0  0  0  0  0  0  0  0
  -10.7161  206.6668  113.5995 C   0  0  0  0  0  0  0  0  0  0  0  0
  -11.8859  207.3571  114.2996 C   0  0  0  0  0  0  0  0  0  0  0  0
  -13.1461  206.9472  113.5498 C   0  0  0  0  0  0  0  0  0  0  0  0
  -13.2361  207.7170  112.2597 C   0  0  0  0  0  0  0  0  0  0  0  0
  -14.3363  207.2571  111.4999 O   0  0  0  0  0  0  0  0  0  0  0  0
  -13.1363  205.4471  113.3400 C   0  0  0  0  0  0  0  0  0  0  0  0
   -7.4058  208.1065  114.7190 C   0  0  0  0  0  0  0  0  0  0  0  0
   -6.5160  207.6562  113.5589 C   0  0  0  0  0  0  0  0  0  0  0  0
   -5.1059  208.1561  113.9487 C   0  0  0  0  0  0  0  0  0  0  0  0
   -5.0757  208.2462  115.4987 C   0  0  0  0  0  0  0  0  0  0  0  0
   -6.5357  207.9165  115.9589 C   0  0  0  0  0  0  0  0  0  0  0  0
   -7.1954  208.6667  117.0989 C   0  0  0  0  0  0  0  0  0  0  0  0
   -8.5655  208.0869  117.3391 C   0  0  0  0  0  0  0  0  0  0  0  0
   -8.9153  207.9371  118.5092 O   0  0  0  0  0  0  0  0  0  0  0  0
   -6.4558  206.4365  116.3390 C   0  0  0  0  0  0  0  0  0  0  0  0
   -4.8658  209.4060  113.3585 O   0  0  0  0  0  0  0  0  0  0  0  0
   -7.7156  209.5765  114.4489 C   0  0  0  0  0  0  0  0  0  0  0  0
  -16.8863  208.1474  110.4401 C   0  0  0  0  0  0  0  0  0  0  0  0
  -16.6264  206.8674  111.1602 C   0  0  0  0  0  0  0  0  0  0  0  0
  -17.9664  206.4077  111.6904 C   0  0  0  0  0  0  0  0  0  0  0  0
   -4.3054  209.4262  116.1085 C   0  0  0  0  0  0  0  0  0  0  0  0
   -4.9452  210.8163  116.0684 C   0  0  0  0  0  0  0  0  0  0  0  0
   -1.9056  208.6658  115.8682 C   0  0  0  0  0  0  0  0  0  0  0  0
   -3.0155  209.5459  115.4283 N   0  0  0  0  0  0  0  0  0  0  0  0
  1  2  1  0  0  0  0
  1 15  1  0  0  0  0
  1 29  1  0  0  0  0
  2  3  1  0  0  0  0
  3  4  1  0  0  0  0
  3 13  1  0  0  0  0
  4  5  1  0  0  0  0
  5  6  1  0  0  0  0
  6  7  1  0  0  0  0
  6 12  1  0  0  0  0
  7  8  1  0  0  0  0
  8  9  1  0  0  0  0
  8 23  1  0  0  0  0
  9 10  1  0  0  0  0
  9 17  1  0  0  0  0
 10 11  1  0  0  0  0
 11 12  1  0  0  0  0
 12 13  1  0  0  0  0
 13 14  1  0  0  0  0
 13 16  1  0  0  0  0
 14 15  1  0  0  0  0
 17 18  1  0  0  0  0
 17 21  1  0  0  0  0
 17 27  1  0  0  0  0
 18 19  1  0  0  0  0
 19 20  1  0  0  0  0
 19 26  1  0  0  0  0
 20 21  1  0  0  0  0
 20 31  1  0  0  0  0
 21 22  1  0  0  0  0
 21 25  1  0  0  0  0
 22 23  1  0  0  0  0
 23 24  1  0  0  0  0
 28 29  1  0  0  0  0
 29 30  1  0  0  0  0
 31 32  1  0  0  0  0
 31 34  1  0  0  0  0
 33 34  1  0  0  0  0
M  END
$$$$
