@<TRIPOS>MOLECULE
ZINC14969940
 34 38 0 0 0
SMALL
USER_CHARGES

@<TRIPOS>ATOM
      1 C1        -14.9900  206.5500  113.0100 C.2     1  UNK01       0.0000
      2 N1        -15.0000  207.1900  114.1400 N.2     1  UNK01       0.0000
      3 C2        -13.7100  207.5200  114.7600 C.3     1  UNK01       0.0000
      4 C3        -13.8300  207.5000  116.2700 C.3     1  UNK01       0.0000
      5 C4        -12.5000  207.5900  116.9600 C.2     1  UNK01       0.0000
      6 C5        -11.3300  207.4800  116.2900 C.2     1  UNK01       0.0000
      7 C6        -10.0200  207.5800  117.0100 C.3     1  UNK01       0.0000
      8 C7         -9.0500  208.5600  116.3400 C.3     1  UNK01       0.0000
      9 C8         -8.2200  207.8900  115.2400 C.3     1  UNK01       0.0000
     10 C9         -9.0000  207.4900  114.0200 C.3     1  UNK01       0.0000
     11 C10       -10.1000  206.5100  114.3500 C.3     1  UNK01       0.0000
     12 C11       -11.3200  207.2700  114.8100 C.3     1  UNK01       0.0000
     13 C12       -12.6000  206.6100  114.3100 C.3     1  UNK01       0.0000
     14 C13       -12.6200  206.5600  112.8000 C.3     1  UNK01       0.0000
     15 O1        -13.8900  206.1600  112.3100 O.2     1  UNK01       0.0000
     16 C14       -12.7500  205.2000  114.8600 C.3     1  UNK01       0.0000
     17 C15        -7.1200  208.8300  114.7900 C.3     1  UNK01       0.0000
     18 C16        -6.2300  208.3500  113.6500 C.3     1  UNK01       0.0000
     19 C17        -4.8700  209.0100  113.9000 C.3     1  UNK01       0.0000
     20 C18        -4.9600  209.7900  115.2300 C.3     1  UNK01       0.0000
     21 C19        -6.1500  209.1000  115.9600 C.3     1  UNK01       0.0000
     22 C20        -6.9100  209.8900  117.0000 C.3     1  UNK01       0.0000
     23 C21        -8.1500  209.1500  117.4300 C.2     1  UNK01       0.0000
     24 O2         -8.5300  209.2300  118.5900 O.2     1  UNK01       0.0000
     25 C22        -5.6200  207.8000  116.5700 C.3     1  UNK01       0.0000
     26 O3         -4.4700  209.9100  112.8600 O.3     1  UNK01       0.0000
     27 C23        -7.7300  210.1400  114.3100 C.3     1  UNK01       0.0000
     28 C24       -16.3700  204.5900  112.4700 C.3     1  UNK01       0.0000
     29 C25       -16.2700  206.0800  112.3600 C.3     1  UNK01       0.0000
     30 C26       -16.3300  206.5200  110.9000 C.3     1  UNK01       0.0000
     31 C27        -3.6200  209.7600  115.9200 C.3     1  UNK01       0.0000
     32 C28        -3.5700  210.6200  117.1600 C.3     1  UNK01       0.0000
     33 C29        -1.4900  209.4500  114.6800 C.3     1  UNK01       0.0000
     34 N2         -2.6000  210.3200  114.9500 N.4     1  UNK01       0.0000
@<TRIPOS>UNITY_ATOM_ATTR
34 1
charge 1
@<TRIPOS>BOND
     1     1     2    2
     2     1    15    1
     3     1    29    1
     4     2     3    1
     5     3     4    1
     6     3    13    1
     7     4     5    1
     8     5     6    2
     9     6     7    1
    10     6    12    1
    11     7     8    1
    12     8     9    1
    13     8    23    1
    14     9    10    1
    15     9    17    1
    16    10    11    1
    17    11    12    1
    18    12    13    1
    19    13    14    1
    20    13    16    1
    21    14    15    1
    22    17    18    1
    23    17    21    1
    24    17    27    1
    25    18    19    1
    26    19    20    1
    27    19    26    1
    28    20    21    1
    29    20    31    1
    30    21    22    1
    31    21    25    1
    32    22    23    1
    33    23    24    2
    34    28    29    1
    35    29    30    1
    36    31    32    1
    37    31    34    1
    38    33    34    1
