# created with PyMOL 2.5.0
@<TRIPOS>MOLECULE
ZINC14969940
81 85 1                 
SMALL
USER_CHARGES
@<TRIPOS>ATOM
1	 H15	-13.580	207.350	114.650	 H	1	UNK0	0.000	
2	 H17	-12.390	203.950	113.840	 H	1	UNK0	0.000	
3	 H16	-13.430	203.510	115.180	 H	1	UNK0	0.000	
4	 H22	-5.530	209.770	113.360	 H	1	UNK0	0.000	
5	 H21	-5.760	208.980	111.140	 H	1	UNK0	0.000	
6	 H20	-7.080	206.460	111.990	 H	1	UNK0	0.000	
7	 H18	-11.690	203.610	115.430	 H	1	UNK0	0.000	
8	 H31	-9.040	209.200	112.950	 H	1	UNK0	0.000	
9	 H30	-7.500	209.970	113.060	 H	1	UNK0	0.000	
10	 H25	-4.430	206.620	114.790	 H	1	UNK0	0.000	
11	 H28	-5.270	206.920	110.550	 H	1	UNK0	0.000	
12	 H27	-5.490	206.000	113.530	 H	1	UNK0	0.000	
13	 H38	-18.140	203.530	116.410	 H	1	UNK0	0.000	
14	 H26	-6.000	205.970	115.210	 H	1	UNK0	0.000	
15	 H23	-6.620	209.640	115.530	 H	1	UNK0	0.000	
16	 H19	-7.850	207.960	111.460	 H	1	UNK0	0.000	
17	 H47	-3.800	210.400	112.170	 H	1	UNK0	0.000	
18	 H34	-17.380	206.200	113.980	 H	1	UNK0	0.000	
19	 H37	-17.150	204.600	117.410	 H	1	UNK0	0.000	
20	 H36	-16.470	203.090	116.800	 H	1	UNK0	0.000	
21	 H35	-16.570	203.890	114.500	 H	1	UNK0	0.000	
22	 H46	-2.350	210.250	112.930	 H	1	UNK0	0.000	
23	 H41	-3.450	208.300	115.510	 H	1	UNK0	0.000	
24	 H40	-3.810	209.990	115.110	 H	1	UNK0	0.000	
25	 H39	-3.260	207.710	113.160	 H	1	UNK0	0.000	
26	 H42	-2.190	209.320	114.830	 H	1	UNK0	0.000	
27	 H45	-1.740	208.370	111.590	 H	1	UNK0	0.000	
28	 H44	-1.950	209.960	110.770	 H	1	UNK0	0.000	
29	 H43	-3.220	208.730	110.620	 H	1	UNK0	0.000	
30	 H29	-8.410	209.600	114.540	 H	1	UNK0	0.000	
31	 H33	-17.830	206.390	115.680	 H	1	UNK0	0.000	
32	 H24	-5.340	208.630	116.210	 H	1	UNK0	0.000	
33	 H32	-18.650	205.180	114.680	 H	1	UNK0	0.000	
34	 H01	-13.300	206.780	116.910	 H	1	UNK0	0.000	
35	 H02	-12.670	203.880	117.630	 H	1	UNK0	0.000	
36	 H03	-12.860	205.260	118.700	 H	1	UNK0	0.000	
37	 H04	-10.440	204.950	118.490	 H	1	UNK0	0.000	
38	 H05	-8.450	205.170	116.160	 H	1	UNK0	0.000	
39	 H06	-8.640	206.100	117.620	 H	1	UNK0	0.000	
40	 H07	-9.290	208.060	115.850	 H	1	UNK0	0.000	
41	 H08	-7.840	205.900	114.260	 H	1	UNK0	0.000	
42	 H09	-9.400	206.600	112.490	 H	1	UNK0	0.000	
43	 H10	-10.170	207.730	113.600	 H	1	UNK0	0.000	
44	 H11	-9.920	204.770	114.200	 H	1	UNK0	0.000	
45	 H12	-11.230	205.500	113.270	 H	1	UNK0	0.000	
46	 H13	-11.280	207.220	115.340	 H	1	UNK0	0.000	
47	 H14	-13.110	206.270	113.340	 H	1	UNK0	0.000	
48	  C1	-15.310	205.270	115.500	C.2	1	UNK0	0.000	
49	  N1	-14.670	205.220	116.630	N.2	1	UNK0	0.000	
50	  C2	-13.280	205.720	116.650	C.3	1	UNK0	0.000	
51	  C3	-12.500	204.960	117.710	C.3	1	UNK0	0.000	
52	  C4	-11.030	205.220	117.630	C.2	1	UNK0	0.000	
53	  C5	-10.430	205.760	116.550	C.2	1	UNK0	0.000	
54	  C6	-8.960	206.040	116.580	C.3	1	UNK0	0.000	
55	  C7	-8.530	207.280	115.780	C.3	1	UNK0	0.000	
56	  C8	-8.320	206.880	114.310	C.3	1	UNK0	0.000	
57	  C9	-9.620	206.790	113.540	C.3	1	UNK0	0.000	
58	 C10	-10.500	205.690	114.060	C.3	1	UNK0	0.000	
59	 C11	-11.210	206.140	115.330	C.3	1	UNK0	0.000	
60	 C12	-12.620	205.540	115.310	C.3	1	UNK0	0.000	
61	 C13	-13.500	206.300	114.360	C.3	1	UNK0	0.000	
62	  O1	-14.810	205.740	114.320	O.3	1	UNK0	0.000	
63	 C14	-12.540	204.070	114.920	C.3	1	UNK0	0.000	
64	 C15	-7.440	207.880	113.600	C.3	1	UNK0	0.000	
65	 C16	-7.100	207.550	112.140	C.3	1	UNK0	0.000	
66	 C17	-5.720	208.190	111.890	C.3	1	UNK0	0.000	
67	 C18	-5.220	208.730	113.260	C.3	1	UNK0	0.000	
68	 C19	-6.070	207.950	114.290	C.3	1	UNK0	0.000	
69	 C20	-6.270	208.610	115.640	C.3	1	UNK0	0.000	
70	 C21	-7.280	207.830	116.450	C.2	1	UNK0	0.000	
71	  O2	-7.160	207.770	117.670	O.2	1	UNK0	0.000	
72	 C22	-5.470	206.560	114.470	C.3	1	UNK0	0.000	
73	  O3	-4.860	207.170	111.400	O.3	1	UNK0	0.000	
74	 C23	-8.130	209.240	113.550	C.3	1	UNK0	0.000	
75	 C24	-17.690	205.660	114.880	C.3	1	UNK0	0.000	
76	 C25	-16.670	204.630	115.300	C.3	1	UNK0	0.000	
77	 C26	-17.130	203.920	116.550	C.3	1	UNK0	0.000	
78	 C27	-3.690	208.690	113.400	C.3	1	UNK0	0.000	
79	 C28	-3.260	209.100	114.790	C.3	1	UNK0	0.000	
80	 C29	-2.450	209.130	111.280	C.3	1	UNK0	0.000	
81	  N2	-3.110	209.680	112.470	N.4	1	UNK0	0.000	
@<TRIPOS>BOND
1 48 49 2
2 48 62 1
3 48 76 1
4 49 50 1
5 34 50 1
6 50 51 1
7 50 60 1
8 35 51 1
9 36 51 1
10 51 52 1
11 37 52 1
12 52 53 2
13 53 54 1
14 53 59 1
15 38 54 1
16 39 54 1
17 54 55 1
18 40 55 1
19 55 56 1
20 55 70 1
21 41 56 1
22 56 57 1
23 56 64 1
24 42 57 1
25 43 57 1
26 57 58 1
27 44 58 1
28 45 58 1
29 58 59 1
30 46 59 1
31 59 60 1
32 60 61 1
33 60 63 1
34 1 61 1
35 47 61 1
36 61 62 1
37 2 63 1
38 3 63 1
39 7 63 1
40 64 65 1
41 64 68 1
42 64 74 1
43 6 65 1
44 16 65 1
45 65 66 1
46 5 66 1
47 66 67 1
48 66 73 1
49 4 67 1
50 67 68 1
51 67 78 1
52 68 69 1
53 68 72 1
54 15 69 1
55 32 69 1
56 69 70 1
57 70 71 2
58 10 72 1
59 12 72 1
60 14 72 1
61 11 73 1
62 8 74 1
63 9 74 1
64 30 74 1
65 18 75 1
66 31 75 1
67 33 75 1
68 75 76 1
69 21 76 1
70 76 77 1
71 13 77 1
72 19 77 1
73 20 77 1
74 25 78 1
75 78 79 1
76 78 81 1
77 23 79 1
78 24 79 1
79 26 79 1
80 27 80 1
81 28 80 1
82 29 80 1
83 80 81 1
84 17 81 1
85 22 81 1
@<TRIPOS>SUBSTRUCTURE
1	UNK0	1	GROUP	1 ****	UNK
