step2_200_2000_5.0_47873.xyz.gro
  PyMOL2.5          3D                             0

 34 38  0  0  0  0  0  0  0  0999 V2000
  -15.9040  206.6595  112.8628 C   0  0  0  0  0  0  0  0  0  0  0  0
  -15.7138  206.8692  114.1428 N   0  0  0  0  0  0  0  0  0  0  0  0
  -14.3237  207.0691  114.6026 C   0  0  0  0  0  0  0  0  0  0  0  0
  -14.1734  206.5788  116.0424 C   0  0  0  0  0  0  0  0  0  0  0  0
  -12.7534  206.6386  116.5022 C   0  0  0  0  0  0  0  0  0  0  0  0
  -11.7135  206.8087  115.6720 C   0  0  0  0  0  0  0  0  0  0  0  0
  -10.3134  206.8785  116.2318 C   0  0  0  0  0  0  0  0  0  0  0  0
   -9.4135  207.9086  115.5618 C   0  0  0  0  0  0  0  0  0  0  0  0
   -8.7137  207.2688  114.3416 C   0  0  0  0  0  0  0  0  0  0  0  0
   -9.6440  207.0791  113.1517 C   0  0  0  0  0  0  0  0  0  0  0  0
  -10.8040  206.1491  113.4317 C   0  0  0  0  0  0  0  0  0  0  0  0
  -11.9038  206.8990  114.1821 C   0  0  0  0  0  0  0  0  0  0  0  0
  -13.2839  206.4092  113.7322 C   0  0  0  0  0  0  0  0  0  0  0  0
  -13.5841  206.9095  112.3324 C   0  0  0  0  0  0  0  0  0  0  0  0
  -14.9142  206.5896  111.9326 O   0  0  0  0  0  0  0  0  0  0  0  0
  -13.3840  204.8892  113.7920 C   0  0  0  0  0  0  0  0  0  0  0  0
   -7.5338  208.1188  113.9015 C   0  0  0  0  0  0  0  0  0  0  0  0
   -6.7040  207.5789  112.7212 C   0  0  0  0  0  0  0  0  0  0  0  0
   -5.2439  208.0088  113.0210 C   0  0  0  0  0  0  0  0  0  0  0  0
   -5.2736  208.8085  114.3412 C   0  0  0  0  0  0  0  0  0  0  0  0
   -6.5135  208.2485  115.0513 C   0  0  0  0  0  0  0  0  0  0  0  0
   -7.1433  209.0983  116.1316 C   0  0  0  0  0  0  0  0  0  0  0  0
   -8.4032  208.4083  116.6017 C   0  0  0  0  0  0  0  0  0  0  0  0
   -8.6130  208.3381  117.8017 O   0  0  0  0  0  0  0  0  0  0  0  0
   -6.1335  206.8783  115.6210 C   0  0  0  0  0  0  0  0  0  0  0  0
   -4.6441  208.7690  111.9811 O   0  0  0  0  0  0  0  0  0  0  0  0
   -8.0237  209.4889  113.4619 C   0  0  0  0  0  0  0  0  0  0  0  0
  -17.2945  206.0600  110.8129 C   0  0  0  0  0  0  0  0  0  0  0  0
  -17.2742  206.2997  112.3030 C   0  0  0  0  0  0  0  0  0  0  0  0
  -18.3140  207.3597  112.5834 C   0  0  0  0  0  0  0  0  0  0  0  0
   -3.9235  208.6283  115.0509 C   0  0  0  0  0  0  0  0  0  0  0  0
   -3.8332  209.4380  116.3311 C   0  0  0  0  0  0  0  0  0  0  0  0
   -1.5537  208.3983  114.2904 C   0  0  0  0  0  0  0  0  0  0  0  0
   -2.8836  209.0684  114.1408 N   0  0  0  0  0  0  0  0  0  0  0  0
  1  2  1  0  0  0  0
  1 15  1  0  0  0  0
  1 29  1  0  0  0  0
  2  3  1  0  0  0  0
  3  4  1  0  0  0  0
  3 13  1  0  0  0  0
  4  5  1  0  0  0  0
  5  6  1  0  0  0  0
  6  7  1  0  0  0  0
  6 12  1  0  0  0  0
  7  8  1  0  0  0  0
  8  9  1  0  0  0  0
  8 23  1  0  0  0  0
  9 10  1  0  0  0  0
  9 17  1  0  0  0  0
 10 11  1  0  0  0  0
 11 12  1  0  0  0  0
 12 13  1  0  0  0  0
 13 14  1  0  0  0  0
 13 16  1  0  0  0  0
 14 15  1  0  0  0  0
 17 18  1  0  0  0  0
 17 21  1  0  0  0  0
 17 27  1  0  0  0  0
 18 19  1  0  0  0  0
 19 20  1  0  0  0  0
 19 26  1  0  0  0  0
 20 21  1  0  0  0  0
 20 31  1  0  0  0  0
 21 22  1  0  0  0  0
 21 25  1  0  0  0  0
 22 23  1  0  0  0  0
 23 24  1  0  0  0  0
 28 29  1  0  0  0  0
 29 30  1  0  0  0  0
 31 32  1  0  0  0  0
 31 34  1  0  0  0  0
 33 34  1  0  0  0  0
M  END
$$$$
