step2_200_2000_5.0_16930.xyz.gro
  PyMOL2.5          3D                             0

 34 38  0  0  0  0  0  0  0  0999 V2000
  -15.3191  205.2673  115.4956 C   0  0  0  0  0  0  0  0  0  0  0  0
  -14.6789  205.2171  116.6254 N   0  0  0  0  0  0  0  0  0  0  0  0
  -13.2888  205.7168  116.6451 C   0  0  0  0  0  0  0  0  0  0  0  0
  -12.5087  204.9566  117.7050 C   0  0  0  0  0  0  0  0  0  0  0  0
  -11.0387  205.2161  117.6247 C   0  0  0  0  0  0  0  0  0  0  0  0
  -10.4388  205.7560  116.5445 C   0  0  0  0  0  0  0  0  0  0  0  0
   -8.9687  206.0356  116.5742 C   0  0  0  0  0  0  0  0  0  0  0  0
   -8.5385  207.2754  115.7741 C   0  0  0  0  0  0  0  0  0  0  0  0
   -8.3289  206.8754  114.3041 C   0  0  0  0  0  0  0  0  0  0  0  0
   -9.6291  206.7857  113.5343 C   0  0  0  0  0  0  0  0  0  0  0  0
  -10.5093  205.6860  114.0545 C   0  0  0  0  0  0  0  0  0  0  0  0
  -11.2189  206.1362  115.3247 C   0  0  0  0  0  0  0  0  0  0  0  0
  -12.6291  205.5366  115.3050 C   0  0  0  0  0  0  0  0  0  0  0  0
  -13.5091  206.2968  114.3552 C   0  0  0  0  0  0  0  0  0  0  0  0
  -14.8192  205.7372  114.3155 O   0  0  0  0  0  0  0  0  0  0  0  0
  -12.5496  204.0665  114.9150 C   0  0  0  0  0  0  0  0  0  0  0  0
   -7.4488  207.8751  113.5939 C   0  0  0  0  0  0  0  0  0  0  0  0
   -7.1092  207.5450  112.1338 C   0  0  0  0  0  0  0  0  0  0  0  0
   -5.7291  208.1846  111.8835 C   0  0  0  0  0  0  0  0  0  0  0  0
   -5.2286  208.7245  113.2534 C   0  0  0  0  0  0  0  0  0  0  0  0
   -6.0786  207.9447  114.2836 C   0  0  0  0  0  0  0  0  0  0  0  0
   -6.2782  208.6048  115.6336 C   0  0  0  0  0  0  0  0  0  0  0  0
   -7.2882  207.8251  116.4438 C   0  0  0  0  0  0  0  0  0  0  0  0
   -7.1680  207.7651  117.6638 O   0  0  0  0  0  0  0  0  0  0  0  0
   -5.4790  206.5546  114.4635 C   0  0  0  0  0  0  0  0  0  0  0  0
   -4.8695  207.1644  111.3933 O   0  0  0  0  0  0  0  0  0  0  0  0
   -8.1384  209.2353  113.5440 C   0  0  0  0  0  0  0  0  0  0  0  0
  -17.6992  205.6580  114.8761 C   0  0  0  0  0  0  0  0  0  0  0  0
  -16.6793  204.6277  115.2959 C   0  0  0  0  0  0  0  0  0  0  0  0
  -17.1393  203.9178  116.5460 C   0  0  0  0  0  0  0  0  0  0  0  0
   -3.6986  208.6841  113.3931 C   0  0  0  0  0  0  0  0  0  0  0  0
   -3.2682  209.0940  114.7830 C   0  0  0  0  0  0  0  0  0  0  0  0
   -2.4590  209.1237  111.2728 C   0  0  0  0  0  0  0  0  0  0  0  0
   -3.1185  209.6739  112.4629 N   0  0  0  0  0  0  0  0  0  0  0  0
  1  2  1  0  0  0  0
  1 15  1  0  0  0  0
  1 29  1  0  0  0  0
  2  3  1  0  0  0  0
  3  4  1  0  0  0  0
  3 13  1  0  0  0  0
  4  5  1  0  0  0  0
  5  6  1  0  0  0  0
  6  7  1  0  0  0  0
  6 12  1  0  0  0  0
  7  8  1  0  0  0  0
  8  9  1  0  0  0  0
  8 23  1  0  0  0  0
  9 10  1  0  0  0  0
  9 17  1  0  0  0  0
 10 11  1  0  0  0  0
 11 12  1  0  0  0  0
 12 13  1  0  0  0  0
 13 14  1  0  0  0  0
 13 16  1  0  0  0  0
 14 15  1  0  0  0  0
 17 18  1  0  0  0  0
 17 21  1  0  0  0  0
 17 27  1  0  0  0  0
 18 19  1  0  0  0  0
 19 20  1  0  0  0  0
 19 26  1  0  0  0  0
 20 21  1  0  0  0  0
 20 31  1  0  0  0  0
 21 22  1  0  0  0  0
 21 25  1  0  0  0  0
 22 23  1  0  0  0  0
 23 24  1  0  0  0  0
 28 29  1  0  0  0  0
 29 30  1  0  0  0  0
 31 32  1  0  0  0  0
 31 34  1  0  0  0  0
 33 34  1  0  0  0  0
M  END
$$$$
