
 OpenBabel07192215303D

 31 33  0  0  0  0  0  0  0  0999 V2000
    4.0061   12.0194   23.8114 C   0  0  0  0  0  0  0  0  0  0  0  0
    3.8654   13.2776   24.2479 N   0  0  0  0  0  0  0  0  0  0  0  0
    5.0868   13.7445   24.4954 C   0  0  0  0  0  0  0  0  0  0  0  0
    5.6034   14.9237   24.9628 C   0  0  0  0  0  0  0  0  0  0  0  0
    4.7735   16.0442   25.3271 N   0  0  0  0  0  0  0  0  0  0  0  0
    5.9664   12.7624   24.1634 C   0  0  0  0  0  0  0  0  0  0  0  0
    7.2931   12.8423   24.2724 N   0  0  0  0  0  0  0  0  0  0  0  0
    7.7471   14.0279   24.7175 C   0  0  0  0  0  0  0  0  0  0  0  0
    6.9260   15.0419   25.0438 N   0  0  0  0  0  0  0  0  0  0  0  0
    5.3281   11.6879   23.7517 N   0  0  0  0  0  0  0  0  0  0  0  0
    3.7934   15.9694   25.2715 H   0  0  0  0  0  0  0  0  0  0  0  0
    5.1866   16.8843   25.6316 H   0  0  0  0  0  0  0  0  0  0  0  0
    2.8487   11.1265   23.3855 C   0  0  0  0  0  0  0  0  0  0  0  0
    0.0377   11.8749   24.6992 Cl  0  0  0  0  0  0  0  0  0  0  0  0
    1.0675   10.5174   25.1766 C   0  0  0  0  0  0  0  0  0  0  0  0
    0.6897    9.6791   26.2405 C   0  0  0  0  0  0  0  0  0  0  0  0
    1.4852    8.6405   26.6657 C   0  0  0  0  0  0  0  0  0  0  0  0
    2.6973    8.3887   26.0654 C   0  0  0  0  0  0  0  0  0  0  0  0
    3.1143    9.2032   25.0023 C   0  0  0  0  0  0  0  0  0  0  0  0
    2.3082   10.2663   24.5397 C   0  0  0  0  0  0  0  0  0  0  0  0
   -0.4681    9.7197   27.0691 O   0  0  0  0  0  0  0  0  0  0  0  0
   -1.3914   10.1714   27.8974 C   0  0  0  0  0  0  0  0  0  0  0  0
    0.9680    7.8524   27.7493 O   0  0  0  0  0  0  0  0  0  0  0  0
    1.5628    7.9233   29.0771 C   0  0  0  0  0  0  0  0  0  0  0  0
    3.4246    7.3231   26.5629 O   0  0  0  0  0  0  0  0  0  0  0  0
    3.9748    6.2922   25.7137 C   0  0  0  0  0  0  0  0  0  0  0  0
    5.9229   10.4169   23.3366 C   0  0  0  0  0  0  0  0  0  0  0  0
    6.9938   10.6464   22.2644 C   0  0  0  0  0  0  0  0  0  0  0  0
    8.1964    9.7361   22.4749 C   0  0  0  0  0  0  0  0  0  0  0  0
    7.9715    8.6083   23.4919 C   0  0  0  0  0  0  0  0  0  0  0  0
    7.8868    7.7432   24.2963 C   0  0  0  0  0  0  0  0  0  0  0  0
  1 10  1  0  0  0  0
  2  1  2  0  0  0  0
  2  3  1  0  0  0  0
  3  4  2  0  0  0  0
  3  6  1  0  0  0  0
  4  9  1  0  0  0  0
  5  4  1  0  0  0  0
  5 11  1  0  0  0  0
  5 12  1  0  0  0  0
  6  7  2  0  0  0  0
  7  8  1  0  0  0  0
  9  8  2  0  0  0  0
 10  6  1  0  0  0  0
 10 27  1  0  0  0  0
 13 20  1  0  0  0  0
 13  1  1  0  0  0  0
 14 15  1  0  0  0  0
 15 16  1  0  0  0  0
 16 17  2  0  0  0  0
 16 21  1  0  0  0  0
 17 23  1  0  0  0  0
 18 25  1  0  0  0  0
 18 17  1  0  0  0  0
 19 18  2  0  0  0  0
 20 19  1  0  0  0  0
 20 15  2  0  0  0  0
 21 22  1  0  0  0  0
 24 23  1  0  0  0  0
 26 25  1  0  0  0  0
 28 27  1  0  0  0  0
 29 28  1  0  0  0  0
 30 29  1  0  0  0  0
 31 30  3  0  0  0  0
M  END
>  <minimizedAffinity>
-8.07865

$$$$
