
 OpenBabel07192215303D

 25 27  0  0  0  0  0  0  0  0999 V2000
    3.8129   12.5320   24.2057 N   0  0  0  0  0  0  0  0  0  0  0  0
    4.2647   13.6849   24.6541 C   0  0  0  0  0  0  0  0  0  0  0  0
    3.7027   14.7283   25.2710 N   0  0  0  0  0  0  0  0  0  0  0  0
    4.4623   15.7980   25.5807 C   0  0  0  0  0  0  0  0  0  0  0  0
    5.7997   15.8569   25.3798 N   0  0  0  0  0  0  0  0  0  0  0  0
    5.7016   13.6635   24.3979 C   0  0  0  0  0  0  0  0  0  0  0  0
    6.4423   14.8457   24.7533 C   0  0  0  0  0  0  0  0  0  0  0  0
    7.7485   14.8721   24.4874 N   0  0  0  0  0  0  0  0  0  0  0  0
    5.9906   12.4992   23.8329 N   0  0  0  0  0  0  0  0  0  0  0  0
    4.8206   11.8440   23.6915 C   0  0  0  0  0  0  0  0  0  0  0  0
    8.1729   14.1114   24.0287 H   0  0  0  0  0  0  0  0  0  0  0  0
    8.2885   15.6524   24.7497 H   0  0  0  0  0  0  0  0  0  0  0  0
    2.4117   12.0919   24.2960 C   0  0  0  0  0  0  0  0  0  0  0  0
    1.5434   13.1235   23.5790 C   0  0  0  0  0  0  0  0  0  0  0  0
   -0.8394   12.3517   23.2597 C   0  0  0  0  0  0  0  0  0  0  0  0
    0.5728   12.6840   22.7537 C   0  0  0  0  0  0  0  0  0  0  0  0
    4.6677   10.4646   23.1030 C   0  0  0  0  0  0  0  0  0  0  0  0
    6.9929   10.0860   22.2165 C   0  0  0  0  0  0  0  0  0  0  0  0
    5.9890    9.7292   23.1327 C   0  0  0  0  0  0  0  0  0  0  0  0
    6.1949    8.7597   24.0940 C   0  0  0  0  0  0  0  0  0  0  0  0
    8.2109    9.4237   22.2620 C   0  0  0  0  0  0  0  0  0  0  0  0
    8.4145    8.4441   23.2129 C   0  0  0  0  0  0  0  0  0  0  0  0
    7.4227    8.1408   24.1368 C   0  0  0  0  0  0  0  0  0  0  0  0
    7.6004    7.1603   25.0746 O   0  0  0  0  0  0  0  0  0  0  0  0
    6.5973    6.1895   25.3920 C   0  0  0  0  0  0  0  0  0  0  0  0
  1  2  1  0  0  0  0
  1 13  1  0  0  0  0
  2  3  1  0  0  0  0
  3  4  2  0  0  0  0
  5  4  1  0  0  0  0
  6  7  1  0  0  0  0
  6  2  2  0  0  0  0
  7  5  2  0  0  0  0
  8  7  1  0  0  0  0
  8 11  1  0  0  0  0
  8 12  1  0  0  0  0
  9 10  2  0  0  0  0
  9  6  1  0  0  0  0
 10  1  1  0  0  0  0
 14 13  1  0  0  0  0
 15 16  1  0  0  0  0
 16 14  1  0  0  0  0
 17 19  1  0  0  0  0
 17 10  1  0  0  0  0
 18 19  2  0  0  0  0
 18 21  1  0  0  0  0
 19 20  1  0  0  0  0
 20 23  2  0  0  0  0
 21 22  2  0  0  0  0
 22 23  1  0  0  0  0
 23 24  1  0  0  0  0
 24 25  1  0  0  0  0
M  END
>  <minimizedAffinity>
-9.17724

$$$$
