
 OpenBabel07192215303D

 32 34  0  0  0  0  0  0  0  0999 V2000
    4.7079   11.7808   23.6109 C   0  0  0  0  0  0  0  0  0  0  0  0
    4.2606   12.8430   24.2158 N   0  0  0  0  0  0  0  0  0  0  0  0
    5.4418   13.6482   24.4689 C   0  0  0  0  0  0  0  0  0  0  0  0
    5.5830   14.8595   25.0465 C   0  0  0  0  0  0  0  0  0  0  0  0
    4.5252   15.6492   25.6364 N   0  0  0  0  0  0  0  0  0  0  0  0
    6.5498   13.0615   23.9672 C   0  0  0  0  0  0  0  0  0  0  0  0
    7.7366   13.5864   23.9847 N   0  0  0  0  0  0  0  0  0  0  0  0
    7.8484   14.7648   24.5607 C   0  0  0  0  0  0  0  0  0  0  0  0
    6.8172   15.3422   25.0775 N   0  0  0  0  0  0  0  0  0  0  0  0
    6.1466   11.8410   23.3577 N   0  0  0  0  0  0  0  0  0  0  0  0
    9.0403   15.3991   24.6400 F   0  0  0  0  0  0  0  0  0  0  0  0
    3.5989   15.3158   25.6280 H   0  0  0  0  0  0  0  0  0  0  0  0
    4.7312   16.5202   26.0465 H   0  0  0  0  0  0  0  0  0  0  0  0
    3.8851   10.6106   23.1525 C   0  0  0  0  0  0  0  0  0  0  0  0
    3.6393    7.9801   25.0409 Cl  0  0  0  0  0  0  0  0  0  0  0  0
    2.4407    9.2606   24.8072 C   0  0  0  0  0  0  0  0  0  0  0  0
    1.2123    9.2063   25.4339 C   0  0  0  0  0  0  0  0  0  0  0  0
    0.2541   10.1503   25.2650 C   0  0  0  0  0  0  0  0  0  0  0  0
    0.4102   11.2024   24.4638 C   0  0  0  0  0  0  0  0  0  0  0  0
    1.6120   11.3325   23.7853 C   0  0  0  0  0  0  0  0  0  0  0  0
    2.6170   10.3770   23.9417 C   0  0  0  0  0  0  0  0  0  0  0  0
    0.7341    8.2368   26.3091 O   0  0  0  0  0  0  0  0  0  0  0  0
    0.3184    6.9592   25.9555 C   0  0  0  0  0  0  0  0  0  0  0  0
   -0.9270    9.9863   25.9899 O   0  0  0  0  0  0  0  0  0  0  0  0
   -1.0054   10.5220   27.3046 C   0  0  0  0  0  0  0  0  0  0  0  0
   -0.6511   12.1318   24.4525 O   0  0  0  0  0  0  0  0  0  0  0  0
   -1.4909   12.1019   23.2833 C   0  0  0  0  0  0  0  0  0  0  0  0
    7.0213   10.8216   22.7508 C   0  0  0  0  0  0  0  0  0  0  0  0
    7.7302   10.0186   23.8261 C   0  0  0  0  0  0  0  0  0  0  0  0
    8.0685    8.5822   23.5328 C   0  0  0  0  0  0  0  0  0  0  0  0
    7.4901    7.4563   24.4038 C   0  0  0  0  0  0  0  0  0  0  0  0
    6.9982    6.5894   25.0339 C   0  0  0  0  0  0  0  0  0  0  0  0
  1 10  1  0  0  0  0
  2  1  2  0  0  0  0
  2  3  1  0  0  0  0
  3  4  1  0  0  0  0
  3  6  2  0  0  0  0
  4  9  2  0  0  0  0
  5  4  1  0  0  0  0
  5 12  1  0  0  0  0
  5 13  1  0  0  0  0
  6  7  1  0  0  0  0
  7  8  2  0  0  0  0
  8 11  1  0  0  0  0
  9  8  1  0  0  0  0
 10  6  1  0  0  0  0
 10 28  1  0  0  0  0
 14 21  1  0  0  0  0
 14  1  1  0  0  0  0
 16 15  1  0  0  0  0
 16 17  1  0  0  0  0
 17 22  1  0  0  0  0
 18 17  2  0  0  0  0
 18 24  1  0  0  0  0
 19 26  1  0  0  0  0
 19 18  1  0  0  0  0
 20 21  1  0  0  0  0
 20 19  2  0  0  0  0
 21 16  2  0  0  0  0
 22 23  1  0  0  0  0
 25 24  1  0  0  0  0
 27 26  1  0  0  0  0
 29 28  1  0  0  0  0
 30 29  1  0  0  0  0
 31 30  1  0  0  0  0
 32 31  3  0  0  0  0
M  END
>  <minimizedAffinity>
-9.66876

$$$$
