
 OpenBabel07192215303D

 25 27  0  0  0  0  0  0  0  0999 V2000
    5.9102   11.8146   23.4973 N   0  0  0  0  0  0  0  0  0  0  0  0
    6.4184   12.9434   23.9469 C   0  0  0  0  0  0  0  0  0  0  0  0
    7.6445   13.4745   23.9538 N   0  0  0  0  0  0  0  0  0  0  0  0
    7.8393   14.6745   24.5361 C   0  0  0  0  0  0  0  0  0  0  0  0
    6.8439   15.4324   25.0532 N   0  0  0  0  0  0  0  0  0  0  0  0
    5.2855   13.6913   24.4833 C   0  0  0  0  0  0  0  0  0  0  0  0
    5.5767   14.9628   25.0926 C   0  0  0  0  0  0  0  0  0  0  0  0
    4.5675   15.6463   25.6327 N   0  0  0  0  0  0  0  0  0  0  0  0
    4.1969   12.9573   24.2981 N   0  0  0  0  0  0  0  0  0  0  0  0
    4.6071   11.8045   23.7315 C   0  0  0  0  0  0  0  0  0  0  0  0
    3.6607   15.2631   25.6382 H   0  0  0  0  0  0  0  0  0  0  0  0
    4.7291   16.5342   26.0261 H   0  0  0  0  0  0  0  0  0  0  0  0
    6.6842   10.7600   22.8236 C   0  0  0  0  0  0  0  0  0  0  0  0
    7.4663    9.9926   23.8875 C   0  0  0  0  0  0  0  0  0  0  0  0
    7.8231    7.5639   24.4784 C   0  0  0  0  0  0  0  0  0  0  0  0
    7.9792    8.7889   23.5644 C   0  0  0  0  0  0  0  0  0  0  0  0
    3.7013   10.6690   23.3285 C   0  0  0  0  0  0  0  0  0  0  0  0
    1.9407   10.1802   25.0597 C   0  0  0  0  0  0  0  0  0  0  0  0
    2.3144   10.8737   23.8962 C   0  0  0  0  0  0  0  0  0  0  0  0
    1.4671   11.7769   23.2858 C   0  0  0  0  0  0  0  0  0  0  0  0
    0.6755   10.3879   25.5892 C   0  0  0  0  0  0  0  0  0  0  0  0
   -0.1790   11.2798   24.9728 C   0  0  0  0  0  0  0  0  0  0  0  0
    0.2301   11.9872   23.8497 C   0  0  0  0  0  0  0  0  0  0  0  0
   -0.6098   12.8616   23.2153 O   0  0  0  0  0  0  0  0  0  0  0  0
   -1.8328   12.4584   22.5900 C   0  0  0  0  0  0  0  0  0  0  0  0
  1  2  1  0  0  0  0
  1 13  1  0  0  0  0
  2  3  1  0  0  0  0
  3  4  2  0  0  0  0
  5  4  1  0  0  0  0
  6  7  1  0  0  0  0
  6  2  2  0  0  0  0
  7  5  2  0  0  0  0
  8  7  1  0  0  0  0
  8 11  1  0  0  0  0
  8 12  1  0  0  0  0
  9 10  2  0  0  0  0
  9  6  1  0  0  0  0
 10  1  1  0  0  0  0
 14 13  1  0  0  0  0
 15 16  1  0  0  0  0
 16 14  1  0  0  0  0
 17 19  1  0  0  0  0
 17 10  1  0  0  0  0
 18 19  2  0  0  0  0
 18 21  1  0  0  0  0
 19 20  1  0  0  0  0
 20 23  2  0  0  0  0
 21 22  2  0  0  0  0
 22 23  1  0  0  0  0
 23 24  1  0  0  0  0
 24 25  1  0  0  0  0
M  END
>  <minimizedAffinity>
-9.39107

$$$$
