
 OpenBabel07192215303D

 25 27  0  0  0  0  0  0  0  0999 V2000
    5.8343   11.9229   23.5413 N   0  0  0  0  0  0  0  0  0  0  0  0
    6.3120   13.0674   24.0017 C   0  0  0  0  0  0  0  0  0  0  0  0
    7.6502   13.4454   23.8485 N   0  0  0  0  0  0  0  0  0  0  0  0
    8.0121   14.7438   24.4024 C   0  0  0  0  0  0  0  0  0  0  0  0
    6.9340   15.4886   24.9719 N   0  0  0  0  0  0  0  0  0  0  0  0
    5.2804   13.9072   24.6538 C   0  0  0  0  0  0  0  0  0  0  0  0
    5.6280   15.1875   25.1480 C   0  0  0  0  0  0  0  0  0  0  0  0
    4.6726   15.9523   25.7224 N   0  0  0  0  0  0  0  0  0  0  0  0
    4.1274   13.2002   24.4872 N   0  0  0  0  0  0  0  0  0  0  0  0
    4.5621   12.0777   23.9212 C   0  0  0  0  0  0  0  0  0  0  0  0
    3.7494   15.6173   25.7916 H   0  0  0  0  0  0  0  0  0  0  0  0
    4.9000   16.8443   26.0716 H   0  0  0  0  0  0  0  0  0  0  0  0
    6.5393   10.8503   22.8679 C   0  0  0  0  0  0  0  0  0  0  0  0
    7.3387   10.0071   23.8459 C   0  0  0  0  0  0  0  0  0  0  0  0
    8.0948    7.6306   24.2174 C   0  0  0  0  0  0  0  0  0  0  0  0
    7.0082    8.7069   23.9258 C   0  0  0  0  0  0  0  0  0  0  0  0
    3.7271   10.8955   23.4316 C   0  0  0  0  0  0  0  0  0  0  0  0
    2.5583   10.4816   24.3098 C   0  0  0  0  0  0  0  0  0  0  0  0
    1.2371   10.8913   24.1559 C   0  0  0  0  0  0  0  0  0  0  0  0
    0.2488   10.4252   25.0252 C   0  0  0  0  0  0  0  0  0  0  0  0
    2.9888    9.6129   25.3444 C   0  0  0  0  0  0  0  0  0  0  0  0
    1.9756    9.1687   26.2174 C   0  0  0  0  0  0  0  0  0  0  0  0
    0.6338    9.5595   26.0586 C   0  0  0  0  0  0  0  0  0  0  0  0
   -0.3442    9.1237   26.9434 O   0  0  0  0  0  0  0  0  0  0  0  0
   -1.0805   10.0370   27.7515 C   0  0  0  0  0  0  0  0  0  0  0  0
  1  2  1  0  0  0  0
  1 13  1  0  0  0  0
  2  3  1  0  0  0  0
  3  4  2  0  0  0  0
  5  4  1  0  0  0  0
  6  7  1  0  0  0  0
  6  2  2  0  0  0  0
  7  5  2  0  0  0  0
  8  7  1  0  0  0  0
  8 11  1  0  0  0  0
  8 12  1  0  0  0  0
  9 10  2  0  0  0  0
  9  6  1  0  0  0  0
 10  1  1  0  0  0  0
 14 13  1  0  0  0  0
 15 16  1  0  0  0  0
 16 14  1  0  0  0  0
 17 18  1  0  0  0  0
 17 10  1  0  0  0  0
 18 19  2  0  0  0  0
 18 21  1  0  0  0  0
 19 20  1  0  0  0  0
 20 23  2  0  0  0  0
 21 22  2  0  0  0  0
 22 23  1  0  0  0  0
 23 24  1  0  0  0  0
 24 25  1  0  0  0  0
M  END
>  <minimizedAffinity>
-8.90930

$$$$
