


 25 27  0  0  0  0  0  0  0  0999 V2000
    4.6339   11.8881   23.7577 N   0  0  0  0  0  0  0  0  0  0  0  0
    5.3515   12.9423   24.1095 C   0  0  0  0  0  0  0  0  0  0  0  0
    6.7170   13.0567   23.8278 N   0  0  0  0  0  0  0  0  0  0  0  0
    7.3576   14.2877   24.2727 C   0  0  0  0  0  0  0  0  0  0  0  0
    6.4886   15.2448   24.8811 N   0  0  0  0  0  0  0  0  0  0  0  0
    4.5528   13.9876   24.7908 C   0  0  0  0  0  0  0  0  0  0  0  0
    5.1707   15.2008   25.1785 C   0  0  0  0  0  0  0  0  0  0  0  0
    4.4260   16.1550   25.7809 N   0  0  0  0  0  0  0  0  0  0  0  0
    3.2800   13.5017   24.7592 N   0  0  0  0  0  0  0  0  0  0  0  0
    3.4504   12.2941   24.2281 C   0  0  0  0  0  0  0  0  0  0  0  0
    3.4672   16.0015   25.9434 H   0  0  0  0  0  0  0  0  0  0  0  0
    4.8425   17.0032   26.0570 H   0  0  0  0  0  0  0  0  0  0  0  0
    5.0685   10.6743   23.0953 C   0  0  0  0  0  0  0  0  0  0  0  0
    5.9178    9.8112   24.0119 C   0  0  0  0  0  0  0  0  0  0  0  0
    7.6229    9.9162   22.1575 C   0  0  0  0  0  0  0  0  0  0  0  0
    7.1742    9.5613   23.6056 C   0  0  0  0  0  0  0  0  0  0  0  0
    2.3736   11.2683   23.8780 C   0  0  0  0  0  0  0  0  0  0  0  0
    1.0880   11.8132   23.2788 C   0  0  0  0  0  0  0  0  0  0  0  0
    0.9925   12.6199   22.1486 C   0  0  0  0  0  0  0  0  0  0  0  0
   -0.2558   13.0444   21.6890 C   0  0  0  0  0  0  0  0  0  0  0  0
   -0.0359   11.4012   24.0387 C   0  0  0  0  0  0  0  0  0  0  0  0
   -1.2825   11.8550   23.5634 C   0  0  0  0  0  0  0  0  0  0  0  0
   -1.3925   12.6531   22.4104 C   0  0  0  0  0  0  0  0  0  0  0  0
   -2.6309   13.1042   21.9722 O   0  0  0  0  0  0  0  0  0  0  0  0
   -3.3523   14.1090   22.6788 C   0  0  0  0  0  0  0  0  0  0  0  0
 17 18  1  0  0  0
 17 10  1  0  0  0
  9 10  2  0  0  0
  9  6  1  0  0  0
 18 19  2  0  0  0
 18 21  1  0  0  0
 19 20  1  0  0  0
 10  1  1  0  0  0
 21 22  2  0  0  0
  8  7  1  0  0  0
 20 23  2  0  0  0
 15 16  1  0  0  0
 16 14  1  0  0  0
 22 23  1  0  0  0
 23 24  1  0  0  0
  6  7  1  0  0  0
  6  2  2  0  0  0
  7  5  2  0  0  0
 24 25  1  0  0  0
  1  2  1  0  0  0
  1 13  1  0  0  0
 14 13  1  0  0  0
  2  3  1  0  0  0
  5  4  1  0  0  0
  3  4  2  0  0  0
  8 11  1  0  0  0
  8 12  1  0  0  0
M  END
> <minimizedAffinity>
-9.28171

$$$$



 25 27  0  0  0  0  0  0  0  0999 V2000
    5.8343   11.9229   23.5413 N   0  0  0  0  0  0  0  0  0  0  0  0
    6.3120   13.0674   24.0017 C   0  0  0  0  0  0  0  0  0  0  0  0
    7.6502   13.4454   23.8485 N   0  0  0  0  0  0  0  0  0  0  0  0
    8.0121   14.7438   24.4024 C   0  0  0  0  0  0  0  0  0  0  0  0
    6.9340   15.4886   24.9719 N   0  0  0  0  0  0  0  0  0  0  0  0
    5.2804   13.9072   24.6538 C   0  0  0  0  0  0  0  0  0  0  0  0
    5.6280   15.1875   25.1480 C   0  0  0  0  0  0  0  0  0  0  0  0
    4.6726   15.9523   25.7224 N   0  0  0  0  0  0  0  0  0  0  0  0
    4.1274   13.2002   24.4872 N   0  0  0  0  0  0  0  0  0  0  0  0
    4.5621   12.0777   23.9212 C   0  0  0  0  0  0  0  0  0  0  0  0
    3.7494   15.6173   25.7916 H   0  0  0  0  0  0  0  0  0  0  0  0
    4.9000   16.8443   26.0716 H   0  0  0  0  0  0  0  0  0  0  0  0
    6.5393   10.8503   22.8679 C   0  0  0  0  0  0  0  0  0  0  0  0
    7.3387   10.0071   23.8459 C   0  0  0  0  0  0  0  0  0  0  0  0
    8.0948    7.6306   24.2174 C   0  0  0  0  0  0  0  0  0  0  0  0
    7.0082    8.7069   23.9258 C   0  0  0  0  0  0  0  0  0  0  0  0
    3.7271   10.8955   23.4316 C   0  0  0  0  0  0  0  0  0  0  0  0
    2.5583   10.4816   24.3098 C   0  0  0  0  0  0  0  0  0  0  0  0
    1.2371   10.8913   24.1559 C   0  0  0  0  0  0  0  0  0  0  0  0
    0.2488   10.4252   25.0252 C   0  0  0  0  0  0  0  0  0  0  0  0
    2.9888    9.6129   25.3444 C   0  0  0  0  0  0  0  0  0  0  0  0
    1.9756    9.1687   26.2174 C   0  0  0  0  0  0  0  0  0  0  0  0
    0.6338    9.5595   26.0586 C   0  0  0  0  0  0  0  0  0  0  0  0
   -0.3442    9.1237   26.9434 O   0  0  0  0  0  0  0  0  0  0  0  0
   -1.0805   10.0370   27.7515 C   0  0  0  0  0  0  0  0  0  0  0  0
 17 18  1  0  0  0
 17 10  1  0  0  0
  9 10  2  0  0  0
  9  6  1  0  0  0
 18 19  2  0  0  0
 18 21  1  0  0  0
 19 20  1  0  0  0
 10  1  1  0  0  0
 21 22  2  0  0  0
  8  7  1  0  0  0
 20 23  2  0  0  0
 15 16  1  0  0  0
 16 14  1  0  0  0
 22 23  1  0  0  0
 23 24  1  0  0  0
  6  7  1  0  0  0
  6  2  2  0  0  0
  7  5  2  0  0  0
 24 25  1  0  0  0
  1  2  1  0  0  0
  1 13  1  0  0  0
 14 13  1  0  0  0
  2  3  1  0  0  0
  5  4  1  0  0  0
  3  4  2  0  0  0
  8 11  1  0  0  0
  8 12  1  0  0  0
M  END
> <minimizedAffinity>
-8.90930

$$$$



 25 27  0  0  0  0  0  0  0  0999 V2000
    5.3770   11.6878   23.4110 N   0  0  0  0  0  0  0  0  0  0  0  0
    5.6625   12.8461   23.9827 C   0  0  0  0  0  0  0  0  0  0  0  0
    4.6816   13.6907   24.5133 N   0  0  0  0  0  0  0  0  0  0  0  0
    5.1645   14.9245   25.1200 C   0  0  0  0  0  0  0  0  0  0  0  0
    6.5847   15.0767   25.1506 N   0  0  0  0  0  0  0  0  0  0  0  0
    7.1163   13.1271   24.0314 C   0  0  0  0  0  0  0  0  0  0  0  0
    7.5820   14.3049   24.6639 C   0  0  0  0  0  0  0  0  0  0  0  0
    8.9123   14.5394   24.7196 N   0  0  0  0  0  0  0  0  0  0  0  0
    7.6854   12.0085   23.5005 N   0  0  0  0  0  0  0  0  0  0  0  0
    6.6237   11.3031   23.1203 C   0  0  0  0  0  0  0  0  0  0  0  0
    9.5428   13.8947   24.3245 H   0  0  0  0  0  0  0  0  0  0  0  0
    9.2506   15.3549   25.1553 H   0  0  0  0  0  0  0  0  0  0  0  0
    4.0786   11.0899   23.1707 C   0  0  0  0  0  0  0  0  0  0  0  0
    3.3323   10.8348   24.4685 C   0  0  0  0  0  0  0  0  0  0  0  0
    1.4374   12.2881   23.6593 C   0  0  0  0  0  0  0  0  0  0  0  0
    2.0113   11.0814   24.4588 C   0  0  0  0  0  0  0  0  0  0  0  0
    6.6043    9.9068   22.5003 C   0  0  0  0  0  0  0  0  0  0  0  0
    6.7937    8.7393   23.4542 C   0  0  0  0  0  0  0  0  0  0  0  0
    7.9629    8.4303   24.1433 C   0  0  0  0  0  0  0  0  0  0  0  0
    8.0037    7.3331   25.0058 C   0  0  0  0  0  0  0  0  0  0  0  0
    5.6063    7.9707   23.5513 C   0  0  0  0  0  0  0  0  0  0  0  0
    5.6776    6.8602   24.4160 C   0  0  0  0  0  0  0  0  0  0  0  0
    6.8472    6.5508   25.1334 C   0  0  0  0  0  0  0  0  0  0  0  0
    6.8993    5.4397   25.9652 O   0  0  0  0  0  0  0  0  0  0  0  0
    6.2843    5.4396   27.2503 C   0  0  0  0  0  0  0  0  0  0  0  0
 17 18  1  0  0  0
 17 10  1  0  0  0
  9 10  2  0  0  0
  9  6  1  0  0  0
 18 19  2  0  0  0
 18 21  1  0  0  0
 19 20  1  0  0  0
 10  1  1  0  0  0
 21 22  2  0  0  0
  8  7  1  0  0  0
 20 23  2  0  0  0
 15 16  1  0  0  0
 16 14  1  0  0  0
 22 23  1  0  0  0
 23 24  1  0  0  0
  6  7  1  0  0  0
  6  2  2  0  0  0
  7  5  2  0  0  0
 24 25  1  0  0  0
  1  2  1  0  0  0
  1 13  1  0  0  0
 14 13  1  0  0  0
  2  3  1  0  0  0
  5  4  1  0  0  0
  3  4  2  0  0  0
  8 11  1  0  0  0
  8 12  1  0  0  0
M  END
> <minimizedAffinity>
-8.87010

$$$$
