
 OpenBabel07192215303D

 31 33  0  0  0  0  0  0  0  0999 V2000
    4.8511   11.7382   23.6167 C   0  0  0  0  0  0  0  0  0  0  0  0
    4.3406   12.8101   24.2363 N   0  0  0  0  0  0  0  0  0  0  0  0
    5.3514   13.6424   24.4743 C   0  0  0  0  0  0  0  0  0  0  0  0
    5.4856   14.8665   25.0738 C   0  0  0  0  0  0  0  0  0  0  0  0
    4.3694   15.5780   25.6437 N   0  0  0  0  0  0  0  0  0  0  0  0
    6.4707   13.0732   23.9532 C   0  0  0  0  0  0  0  0  0  0  0  0
    7.6961   13.5980   23.9928 N   0  0  0  0  0  0  0  0  0  0  0  0
    7.7672   14.8088   24.5748 C   0  0  0  0  0  0  0  0  0  0  0  0
    6.6913   15.4286   25.0914 N   0  0  0  0  0  0  0  0  0  0  0  0
    6.1932   11.8977   23.4310 N   0  0  0  0  0  0  0  0  0  0  0  0
    3.4722   15.1729   25.6369 H   0  0  0  0  0  0  0  0  0  0  0  0
    4.5042   16.4692   26.0399 H   0  0  0  0  0  0  0  0  0  0  0  0
    4.0252   10.5523   23.1376 C   0  0  0  0  0  0  0  0  0  0  0  0
    3.7037    7.9757   24.9939 Cl  0  0  0  0  0  0  0  0  0  0  0  0
    2.5031    9.2612   24.8013 C   0  0  0  0  0  0  0  0  0  0  0  0
    1.2675    9.1847   25.4683 C   0  0  0  0  0  0  0  0  0  0  0  0
    0.2947   10.1442   25.3091 C   0  0  0  0  0  0  0  0  0  0  0  0
    0.4941   11.2195   24.4742 C   0  0  0  0  0  0  0  0  0  0  0  0
    1.7116   11.3326   23.7868 C   0  0  0  0  0  0  0  0  0  0  0  0
    2.7299   10.3674   23.9452 C   0  0  0  0  0  0  0  0  0  0  0  0
    0.7648    8.1843   26.3486 O   0  0  0  0  0  0  0  0  0  0  0  0
    0.5778    7.0102   26.9224 C   0  0  0  0  0  0  0  0  0  0  0  0
   -0.9111    9.9515   26.0653 O   0  0  0  0  0  0  0  0  0  0  0  0
   -1.0718   10.5503   27.3835 C   0  0  0  0  0  0  0  0  0  0  0  0
   -0.5418   12.1305   24.3805 O   0  0  0  0  0  0  0  0  0  0  0  0
   -1.5246   12.0854   23.3229 C   0  0  0  0  0  0  0  0  0  0  0  0
    7.1349   10.9700   22.8035 C   0  0  0  0  0  0  0  0  0  0  0  0
    7.8331   10.1101   23.8630 C   0  0  0  0  0  0  0  0  0  0  0  0
    8.0392    8.6826   23.3739 C   0  0  0  0  0  0  0  0  0  0  0  0
    7.5158    7.6003   24.3287 C   0  0  0  0  0  0  0  0  0  0  0  0
    7.1138    6.7073   24.9949 C   0  0  0  0  0  0  0  0  0  0  0  0
  1 10  1  0  0  0  0
  2  1  2  0  0  0  0
  2  3  1  0  0  0  0
  3  4  2  0  0  0  0
  3  6  1  0  0  0  0
  4  9  1  0  0  0  0
  5  4  1  0  0  0  0
  5 11  1  0  0  0  0
  5 12  1  0  0  0  0
  6  7  2  0  0  0  0
  7  8  1  0  0  0  0
  9  8  2  0  0  0  0
 10  6  1  0  0  0  0
 10 27  1  0  0  0  0
 13 20  1  0  0  0  0
 13  1  1  0  0  0  0
 14 15  1  0  0  0  0
 15 16  1  0  0  0  0
 16 17  2  0  0  0  0
 16 21  1  0  0  0  0
 17 23  1  0  0  0  0
 18 25  1  0  0  0  0
 18 17  1  0  0  0  0
 19 18  2  0  0  0  0
 20 19  1  0  0  0  0
 20 15  2  0  0  0  0
 21 22  1  0  0  0  0
 24 23  1  0  0  0  0
 26 25  1  0  0  0  0
 28 27  1  0  0  0  0
 29 28  1  0  0  0  0
 30 29  1  0  0  0  0
 31 30  3  0  0  0  0
M  END
>  <minimizedAffinity>
-8.96299

$$$$
