


 49 50  0  0  0  0  0  0  0  0999 V2000
    3.2344    6.8975   22.5711 C   0  0  0  0  0  0  0  0  0  0  0  0
    2.7573    6.1227   23.8655 C   0  0  0  0  0  0  0  0  0  0  0  0
    1.2501    5.8101   24.1669 C   0  0  0  0  0  0  0  0  0  0  0  0
    0.4192    7.0037   23.6338 C   0  0  0  0  0  0  0  0  0  0  0  0
    0.9197    5.4456   25.7625 C   0  0  0  0  0  0  0  0  0  0  0  0
    1.3732    6.5296   26.7964 C   0  0  0  0  0  0  0  0  0  0  0  0
    2.5777    6.6395   27.5264 C   0  0  0  0  0  0  0  0  0  0  0  0
    2.8818    7.7784   28.4759 C   0  0  0  0  0  0  0  0  0  0  0  0
    3.9732    7.7929   29.0515 O   0  0  0  0  0  0  0  0  0  0  0  0
    1.8470    8.8424   28.6846 C   0  0  0  0  0  0  0  0  0  0  0  0
    0.6332    8.7825   28.0232 C   0  0  0  0  0  0  0  0  0  0  0  0
   -0.4597    9.6959   28.1288 N   0  0  0  0  0  0  0  0  0  0  0  0
   -1.3066   10.4925   27.2606 C   0  0  0  0  0  0  0  0  0  0  0  0
   -2.1122   11.1034   27.7770 O   0  0  0  0  0  0  0  0  0  0  0  0
   -1.0703   10.4423   25.7344 C   0  0  0  0  0  0  0  0  0  0  0  0
   -2.2827   10.1113   24.8973 C   0  0  0  0  0  0  0  0  0  0  0  0
    0.1997   10.6769   25.2566 C   0  0  0  0  0  0  0  0  0  0  0  0
    0.6899   10.6655   23.8725 C   0  0  0  0  0  0  0  0  0  0  0  0
    1.7776   11.2857   23.4330 C   0  0  0  0  0  0  0  0  0  0  0  0
    2.7266   12.1269   24.2402 C   0  0  0  0  0  0  0  0  0  0  0  0
    4.2339   11.6891   24.0951 C   0  0  0  0  0  0  0  0  0  0  0  0
    4.5983   10.1434   24.4815 C   0  0  0  0  0  0  0  0  0  0  0  0
    4.4181    9.7479   25.9433 C   0  0  0  0  0  0  0  0  0  0  0  0
    5.0322    9.3589   23.5349 C   0  0  0  0  0  0  0  0  0  0  0  0
    5.4698    7.9079   23.5594 C   0  0  0  0  0  0  0  0  0  0  0  0
    7.0031    7.9933   23.3956 C   0  0  0  0  0  0  0  0  0  0  0  0
    4.8027    7.0550   22.4711 C   0  0  0  0  0  0  0  0  0  0  0  0
    5.3458    5.7004   22.6437 O   0  0  0  0  0  0  0  0  0  0  0  0
    0.3485    7.6062   27.0396 C   0  0  0  0  0  0  0  0  0  0  0  0
   -0.7420    7.5569   26.4418 O   0  0  0  0  0  0  0  0  0  0  0  0
   -0.7142    9.8230   29.0713 H   0  0  0  0  0  0  0  0  0  0  0  0
    5.1032    5.3641   23.5206 H   0  0  0  0  0  0  0  0  0  0  0  0
    3.7238    5.9914   20.1984 C   0  0  0  0  0  0  0  0  0  0  0  0
    2.7409    6.1111   21.4733 O   0  0  0  0  0  0  0  0  0  0  0  0
    3.6466    5.6664   27.4370 N   0  0  0  0  0  0  0  0  0  0  0  0
    3.4119    4.7182   27.5596 H   0  0  0  0  0  0  0  0  0  0  0  0
    5.0445    5.9884   27.1786 C   0  0  0  0  0  0  0  0  0  0  0  0
    6.1788    5.4601   28.1421 C   0  0  0  0  0  0  0  0  0  0  0  0
    6.6070    6.0023   29.5224 N   0  0  0  0  0  0  0  0  0  0  0  0
    7.8703    5.4416   29.9200 C   0  0  0  0  0  0  0  0  0  0  0  0
    5.7849    5.6094   30.6279 C   0  0  0  0  0  0  0  0  0  0  0  0
    2.7163   13.5883   23.8234 O   0  0  0  0  0  0  0  0  0  0  0  0
    1.7008   14.4338   24.2279 C   0  0  0  0  0  0  0  0  0  0  0  0
    5.0435   12.5146   24.8913 O   0  0  0  0  0  0  0  0  0  0  0  0
    6.1617   13.0945   24.2598 C   0  0  0  0  0  0  0  0  0  0  0  0
    6.0951   14.4317   24.4249 N   0  0  0  0  0  0  0  0  0  0  0  0
    7.0538   12.5080   23.6642 O   0  0  0  0  0  0  0  0  0  0  0  0
    5.3422   14.8299   24.9186 H   0  0  0  0  0  0  0  0  0  0  0  0
    6.7995   15.0095   24.0517 H   0  0  0  0  0  0  0  0  0  0  0  0
 14 13  2  0  0  0
 12 13  1  0  0  0
 12 11  1  0  0  0
 13 15  1  0  0  0
 41 39  1  0  0  0
 10 11  2  0  0  0
 10  8  1  0  0  0
 40 39  1  0  0  0
 11 29  1  0  0  0
  9  8  2  0  0  0
  8  7  1  0  0  0
 39 38  1  0  0  0
 15 16  1  0  0  0
 15 17  2  0  0  0
 29 30  2  0  0  0
 29  6  1  0  0  0
 38 37  1  0  0  0
 17 18  1  0  0  0
  7  6  2  0  0  0
  7 35  1  0  0  0
  6  5  1  0  0  0
 35 37  1  0  0  0
 43 42  1  0  0  0
 23 22  1  0  0  0
 42 20  1  0  0  0
 46 45  1  0  0  0
 44 45  1  0  0  0
 44 21  1  0  0  0
 20 19  1  0  0  0
 20 21  1  0  0  0
 18 19  2  0  0  0
  5  3  1  0  0  0
 45 47  2  0  0  0
 21 22  1  0  0  0
 22 24  2  0  0  0
  4  3  1  0  0  0
  3  2  1  0  0  0
 24 25  1  0  0  0
  2  1  1  0  0  0
 25 26  1  0  0  0
 25 27  1  0  0  0
  1 27  1  0  0  0
  1 34  1  0  0  0
 27 28  1  0  0  0
 34 33  1  0  0  0
 35 36  1  0  0  0
 12 31  1  0  0  0
 46 48  1  0  0  0
 46 49  1  0  0  0
 28 32  1  0  0  0
M  END
> <minimizedAffinity>
3.04125

$$$$



 49 50  0  0  0  0  0  0  0  0999 V2000
    3.4594    7.0640   22.7733 C   0  0  0  0  0  0  0  0  0  0  0  0
    3.0938    6.3215   24.1217 C   0  0  0  0  0  0  0  0  0  0  0  0
    1.6465    5.8158   24.4531 C   0  0  0  0  0  0  0  0  0  0  0  0
    0.6538    6.8359   23.8421 C   0  0  0  0  0  0  0  0  0  0  0  0
    1.3652    5.5207   26.0722 C   0  0  0  0  0  0  0  0  0  0  0  0
    1.6522    6.7292   27.0247 C   0  0  0  0  0  0  0  0  0  0  0  0
    2.8247    7.0636   27.7382 C   0  0  0  0  0  0  0  0  0  0  0  0
    2.9562    8.2986   28.6033 C   0  0  0  0  0  0  0  0  0  0  0  0
    4.0314    8.5116   29.1702 O   0  0  0  0  0  0  0  0  0  0  0  0
    1.7772    9.2135   28.7425 C   0  0  0  0  0  0  0  0  0  0  0  0
    0.5879    8.9319   28.0940 C   0  0  0  0  0  0  0  0  0  0  0  0
   -0.6263    9.6825   28.1413 N   0  0  0  0  0  0  0  0  0  0  0  0
   -1.5758   10.2847   27.2241 C   0  0  0  0  0  0  0  0  0  0  0  0
   -2.4637   10.8073   27.7009 O   0  0  0  0  0  0  0  0  0  0  0  0
   -1.3279   10.1618   25.7039 C   0  0  0  0  0  0  0  0  0  0  0  0
   -2.4757    9.6005   24.8992 C   0  0  0  0  0  0  0  0  0  0  0  0
   -0.1032   10.5437   25.2035 C   0  0  0  0  0  0  0  0  0  0  0  0
    0.3898   10.5059   23.8208 C   0  0  0  0  0  0  0  0  0  0  0  0
    1.3781   11.2446   23.3325 C   0  0  0  0  0  0  0  0  0  0  0  0
    2.1915   12.2691   24.0729 C   0  0  0  0  0  0  0  0  0  0  0  0
    3.7470   12.0453   23.9504 C   0  0  0  0  0  0  0  0  0  0  0  0
    4.3298   10.5999   24.4425 C   0  0  0  0  0  0  0  0  0  0  0  0
    4.2023   10.2864   25.9295 C   0  0  0  0  0  0  0  0  0  0  0  0
    4.8771    9.8217   23.5509 C   0  0  0  0  0  0  0  0  0  0  0  0
    5.5203    8.4548   23.6750 C   0  0  0  0  0  0  0  0  0  0  0  0
    7.0258    8.7497   23.4968 C   0  0  0  0  0  0  0  0  0  0  0  0
    4.9887    7.4396   22.6534 C   0  0  0  0  0  0  0  0  0  0  0  0
    5.7217    6.1936   22.9178 O   0  0  0  0  0  0  0  0  0  0  0  0
    0.4811    7.6604   27.1973 C   0  0  0  0  0  0  0  0  0  0  0  0
   -0.5880    7.4116   26.6108 O   0  0  0  0  0  0  0  0  0  0  0  0
   -0.9008    9.8374   29.0740 H   0  0  0  0  0  0  0  0  0  0  0  0
    5.5265    5.8884   23.8176 H   0  0  0  0  0  0  0  0  0  0  0  0
    3.8857    6.2953   20.3406 C   0  0  0  0  0  0  0  0  0  0  0  0
    3.0901    6.1390   21.7364 O   0  0  0  0  0  0  0  0  0  0  0  0
    4.0238    6.2518   27.7113 N   0  0  0  0  0  0  0  0  0  0  0  0
    4.5529    6.2468   26.8811 H   0  0  0  0  0  0  0  0  0  0  0  0
    4.5043    5.4417   28.8236 C   0  0  0  0  0  0  0  0  0  0  0  0
    4.2121    5.8746   30.3139 C   0  0  0  0  0  0  0  0  0  0  0  0
    3.0461    5.4538   31.2336 N   0  0  0  0  0  0  0  0  0  0  0  0
    1.8140    6.0575   30.8023 C   0  0  0  0  0  0  0  0  0  0  0  0
    3.1143    5.9301   32.5830 C   0  0  0  0  0  0  0  0  0  0  0  0
    1.9714   13.6807   23.5543 O   0  0  0  0  0  0  0  0  0  0  0  0
    1.1801   14.5758   24.2488 C   0  0  0  0  0  0  0  0  0  0  0  0
    4.4248   13.0335   24.6818 O   0  0  0  0  0  0  0  0  0  0  0  0
    5.7019   13.3977   24.2109 C   0  0  0  0  0  0  0  0  0  0  0  0
    5.9018   14.7014   24.4943 N   0  0  0  0  0  0  0  0  0  0  0  0
    6.5091   12.6743   23.6455 O   0  0  0  0  0  0  0  0  0  0  0  0
    5.2010   15.2184   24.9535 H   0  0  0  0  0  0  0  0  0  0  0  0
    6.7485   15.1358   24.2421 H   0  0  0  0  0  0  0  0  0  0  0  0
 14 13  2  0  0  0
 12 13  1  0  0  0
 12 11  1  0  0  0
 13 15  1  0  0  0
 41 39  1  0  0  0
 10 11  2  0  0  0
 10  8  1  0  0  0
 40 39  1  0  0  0
 11 29  1  0  0  0
  9  8  2  0  0  0
  8  7  1  0  0  0
 39 38  1  0  0  0
 15 16  1  0  0  0
 15 17  2  0  0  0
 29 30  2  0  0  0
 29  6  1  0  0  0
 38 37  1  0  0  0
 17 18  1  0  0  0
  7  6  2  0  0  0
  7 35  1  0  0  0
  6  5  1  0  0  0
 35 37  1  0  0  0
 43 42  1  0  0  0
 23 22  1  0  0  0
 42 20  1  0  0  0
 46 45  1  0  0  0
 44 45  1  0  0  0
 44 21  1  0  0  0
 20 19  1  0  0  0
 20 21  1  0  0  0
 18 19  2  0  0  0
  5  3  1  0  0  0
 45 47  2  0  0  0
 21 22  1  0  0  0
 22 24  2  0  0  0
  4  3  1  0  0  0
  3  2  1  0  0  0
 24 25  1  0  0  0
  2  1  1  0  0  0
 25 26  1  0  0  0
 25 27  1  0  0  0
  1 27  1  0  0  0
  1 34  1  0  0  0
 27 28  1  0  0  0
 34 33  1  0  0  0
 35 36  1  0  0  0
 12 31  1  0  0  0
 46 48  1  0  0  0
 46 49  1  0  0  0
 28 32  1  0  0  0
M  END
> <minimizedAffinity>
5.01022

$$$$



 49 50  0  0  0  0  0  0  0  0999 V2000
    3.1247    7.2783   22.7264 C   0  0  0  0  0  0  0  0  0  0  0  0
    2.7632    6.4374   24.0169 C   0  0  0  0  0  0  0  0  0  0  0  0
    1.3079    5.9479   24.3373 C   0  0  0  0  0  0  0  0  0  0  0  0
    0.3350    7.0434   23.8345 C   0  0  0  0  0  0  0  0  0  0  0  0
    1.0495    5.5278   25.9326 C   0  0  0  0  0  0  0  0  0  0  0  0
    1.3919    6.6443   26.9747 C   0  0  0  0  0  0  0  0  0  0  0  0
    2.5879    6.8845   27.6872 C   0  0  0  0  0  0  0  0  0  0  0  0
    2.7741    8.0392   28.6480 C   0  0  0  0  0  0  0  0  0  0  0  0
    3.8662    8.1733   29.2065 O   0  0  0  0  0  0  0  0  0  0  0  0
    1.6266    8.9730   28.8880 C   0  0  0  0  0  0  0  0  0  0  0  0
    0.4167    8.7805   28.2449 C   0  0  0  0  0  0  0  0  0  0  0  0
   -0.7728    9.5593   28.3807 N   0  0  0  0  0  0  0  0  0  0  0  0
   -1.7213   10.2627   27.5374 C   0  0  0  0  0  0  0  0  0  0  0  0
   -2.5833   10.7694   28.0751 O   0  0  0  0  0  0  0  0  0  0  0  0
   -1.5071   10.2592   26.0071 C   0  0  0  0  0  0  0  0  0  0  0  0
   -2.6871    9.7999   25.1845 C   0  0  0  0  0  0  0  0  0  0  0  0
   -0.2814   10.6458   25.5129 C   0  0  0  0  0  0  0  0  0  0  0  0
    0.1829   10.7086   24.1213 C   0  0  0  0  0  0  0  0  0  0  0  0
    1.1836   11.4564   23.6737 C   0  0  0  0  0  0  0  0  0  0  0  0
    2.0424   12.3922   24.4777 C   0  0  0  0  0  0  0  0  0  0  0  0
    3.5876   12.1345   24.3029 C   0  0  0  0  0  0  0  0  0  0  0  0
    4.1355   10.6370   24.6614 C   0  0  0  0  0  0  0  0  0  0  0  0
    4.0276   10.2051   26.1200 C   0  0  0  0  0  0  0  0  0  0  0  0
    4.6411    9.9200   23.6969 C   0  0  0  0  0  0  0  0  0  0  0  0
    5.2445    8.5295   23.6938 C   0  0  0  0  0  0  0  0  0  0  0  0
    6.7545    8.7947   23.5073 C   0  0  0  0  0  0  0  0  0  0  0  0
    4.6622    7.6184   22.6041 C   0  0  0  0  0  0  0  0  0  0  0  0
    5.3617    6.3341   22.7488 O   0  0  0  0  0  0  0  0  0  0  0  0
    0.2535    7.5914   27.2493 C   0  0  0  0  0  0  0  0  0  0  0  0
   -0.8340    7.4231   26.6680 O   0  0  0  0  0  0  0  0  0  0  0  0
   -1.0240    9.6443   29.3288 H   0  0  0  0  0  0  0  0  0  0  0  0
    5.1750    5.9610   23.6245 H   0  0  0  0  0  0  0  0  0  0  0  0
    3.8314    5.4638   21.0239 C   0  0  0  0  0  0  0  0  0  0  0  0
    2.7070    6.4536   21.6253 O   0  0  0  0  0  0  0  0  0  0  0  0
    3.7608    6.0434   27.5671 N   0  0  0  0  0  0  0  0  0  0  0  0
    4.0072    5.7298   26.6670 H   0  0  0  0  0  0  0  0  0  0  0  0
    4.6031    5.6273   28.6815 C   0  0  0  0  0  0  0  0  0  0  0  0
    6.1588    5.4419   28.4833 C   0  0  0  0  0  0  0  0  0  0  0  0
    6.9825    5.4996   27.1792 N   0  0  0  0  0  0  0  0  0  0  0  0
    7.6227    6.7798   27.0376 C   0  0  0  0  0  0  0  0  0  0  0  0
    6.2272    5.4471   25.9629 C   0  0  0  0  0  0  0  0  0  0  0  0
    1.8554   13.8476   24.0821 O   0  0  0  0  0  0  0  0  0  0  0  0
    0.6098   14.3324   23.7309 C   0  0  0  0  0  0  0  0  0  0  0  0
    4.3094   13.0386   25.0980 O   0  0  0  0  0  0  0  0  0  0  0  0
    5.4351   13.6398   24.5005 C   0  0  0  0  0  0  0  0  0  0  0  0
    5.3983   14.9625   24.7634 N   0  0  0  0  0  0  0  0  0  0  0  0
    6.3100   13.0801   23.8557 O   0  0  0  0  0  0  0  0  0  0  0  0
    4.6576   15.3389   25.2916 H   0  0  0  0  0  0  0  0  0  0  0  0
    6.1121   15.5513   24.4271 H   0  0  0  0  0  0  0  0  0  0  0  0
 14 13  2  0  0  0
 12 13  1  0  0  0
 12 11  1  0  0  0
 13 15  1  0  0  0
 41 39  1  0  0  0
 10 11  2  0  0  0
 10  8  1  0  0  0
 40 39  1  0  0  0
 11 29  1  0  0  0
  9  8  2  0  0  0
  8  7  1  0  0  0
 39 38  1  0  0  0
 15 16  1  0  0  0
 15 17  2  0  0  0
 29 30  2  0  0  0
 29  6  1  0  0  0
 38 37  1  0  0  0
 17 18  1  0  0  0
  7  6  2  0  0  0
  7 35  1  0  0  0
  6  5  1  0  0  0
 35 37  1  0  0  0
 43 42  1  0  0  0
 23 22  1  0  0  0
 42 20  1  0  0  0
 46 45  1  0  0  0
 44 45  1  0  0  0
 44 21  1  0  0  0
 20 19  1  0  0  0
 20 21  1  0  0  0
 18 19  2  0  0  0
  5  3  1  0  0  0
 45 47  2  0  0  0
 21 22  1  0  0  0
 22 24  2  0  0  0
  4  3  1  0  0  0
  3  2  1  0  0  0
 24 25  1  0  0  0
  2  1  1  0  0  0
 25 26  1  0  0  0
 25 27  1  0  0  0
  1 27  1  0  0  0
  1 34  1  0  0  0
 27 28  1  0  0  0
 34 33  1  0  0  0
 35 36  1  0  0  0
 12 31  1  0  0  0
 46 48  1  0  0  0
 46 49  1  0  0  0
 28 32  1  0  0  0
M  END
> <minimizedAffinity>
5.01766

$$$$
