
 OpenBabel07192215303D

 49 50  0  0  0  0  0  0  0  0999 V2000
    3.1247    7.2783   22.7264 C   0  0  1  0  0  0  0  0  0  0  0  0
    2.7632    6.4374   24.0169 C   0  0  0  0  0  0  0  0  0  0  0  0
    1.3079    5.9479   24.3373 C   0  0  2  0  0  0  0  0  0  0  0  0
    0.3350    7.0434   23.8345 C   0  0  0  0  0  0  0  0  0  0  0  0
    1.0495    5.5278   25.9326 C   0  0  0  0  0  0  0  0  0  0  0  0
    1.3919    6.6443   26.9747 C   0  0  0  0  0  0  0  0  0  0  0  0
    2.5879    6.8845   27.6872 C   0  0  0  0  0  0  0  0  0  0  0  0
    2.7741    8.0392   28.6480 C   0  0  0  0  0  0  0  0  0  0  0  0
    3.8662    8.1733   29.2065 O   0  0  0  0  0  0  0  0  0  0  0  0
    1.6266    8.9730   28.8880 C   0  0  0  0  0  0  0  0  0  0  0  0
    0.4167    8.7805   28.2449 C   0  0  0  0  0  0  0  0  0  0  0  0
   -0.7728    9.5593   28.3807 N   0  0  0  0  0  0  0  0  0  0  0  0
   -1.7213   10.2627   27.5374 C   0  0  0  0  0  0  0  0  0  0  0  0
   -2.5833   10.7694   28.0751 O   0  0  0  0  0  0  0  0  0  0  0  0
   -1.5071   10.2592   26.0071 C   0  0  0  0  0  0  0  0  0  0  0  0
   -2.6871    9.7999   25.1845 C   0  0  0  0  0  0  0  0  0  0  0  0
   -0.2814   10.6458   25.5129 C   0  0  0  0  0  0  0  0  0  0  0  0
    0.1829   10.7086   24.1213 C   0  0  0  0  0  0  0  0  0  0  0  0
    1.1836   11.4564   23.6737 C   0  0  0  0  0  0  0  0  0  0  0  0
    2.0424   12.3922   24.4777 C   0  0  1  0  0  0  0  0  0  0  0  0
    3.5876   12.1345   24.3029 C   0  0  2  0  0  0  0  0  0  0  0  0
    4.1355   10.6370   24.6614 C   0  0  0  0  0  0  0  0  0  0  0  0
    4.0276   10.2051   26.1200 C   0  0  0  0  0  0  0  0  0  0  0  0
    4.6411    9.9200   23.6969 C   0  0  0  0  0  0  0  0  0  0  0  0
    5.2445    8.5295   23.6938 C   0  0  2  0  0  0  0  0  0  0  0  0
    6.7545    8.7947   23.5073 C   0  0  0  0  0  0  0  0  0  0  0  0
    4.6622    7.6184   22.6041 C   0  0  1  0  0  0  0  0  0  0  0  0
    5.3617    6.3341   22.7488 O   0  0  0  0  0  0  0  0  0  0  0  0
    0.2535    7.5914   27.2493 C   0  0  0  0  0  0  0  0  0  0  0  0
   -0.8340    7.4231   26.6680 O   0  0  0  0  0  0  0  0  0  0  0  0
   -1.0240    9.6443   29.3288 H   0  0  0  0  0  0  0  0  0  0  0  0
    5.1750    5.9610   23.6245 H   0  0  0  0  0  0  0  0  0  0  0  0
    3.8314    5.4638   21.0239 C   0  0  0  0  0  0  0  0  0  0  0  0
    2.7070    6.4536   21.6253 O   0  0  0  0  0  0  0  0  0  0  0  0
    3.7608    6.0434   27.5671 N   0  0  0  0  0  0  0  0  0  0  0  0
    4.0072    5.7298   26.6670 H   0  0  0  0  0  0  0  0  0  0  0  0
    4.6031    5.6273   28.6815 C   0  0  0  0  0  0  0  0  0  0  0  0
    6.1588    5.4419   28.4833 C   0  0  0  0  0  0  0  0  0  0  0  0
    6.9825    5.4996   27.1792 N   0  0  0  0  0  0  0  0  0  0  0  0
    7.6227    6.7798   27.0376 C   0  0  0  0  0  0  0  0  0  0  0  0
    6.2272    5.4471   25.9629 C   0  0  0  0  0  0  0  0  0  0  0  0
    1.8554   13.8476   24.0821 O   0  0  0  0  0  0  0  0  0  0  0  0
    0.6098   14.3324   23.7309 C   0  0  0  0  0  0  0  0  0  0  0  0
    4.3094   13.0386   25.0980 O   0  0  0  0  0  0  0  0  0  0  0  0
    5.4351   13.6398   24.5005 C   0  0  0  0  0  0  0  0  0  0  0  0
    5.3983   14.9625   24.7634 N   0  0  0  0  0  0  0  0  0  0  0  0
    6.3100   13.0801   23.8557 O   0  0  0  0  0  0  0  0  0  0  0  0
    4.6576   15.3389   25.2916 H   0  0  0  0  0  0  0  0  0  0  0  0
    6.1121   15.5513   24.4271 H   0  0  0  0  0  0  0  0  0  0  0  0
  1 27  1  0  0  0  0
  1 34  1  6  0  0  0
  2  1  1  0  0  0  0
  3  4  1  1  0  0  0
  3  2  1  0  0  0  0
  5  3  1  0  0  0  0
  6  5  1  0  0  0  0
  7  6  2  0  0  0  0
  7 35  1  0  0  0  0
  8  7  1  0  0  0  0
  9  8  2  0  0  0  0
 10 11  2  0  0  0  0
 10  8  1  0  0  0  0
 11 29  1  0  0  0  0
 12 13  1  0  0  0  0
 12 11  1  0  0  0  0
 12 31  1  0  0  0  0
 13 15  1  0  0  0  0
 14 13  2  0  0  0  0
 15 16  1  0  0  0  0
 15 17  2  0  0  0  0
 17 18  1  0  0  0  0
 18 19  2  0  0  0  0
 20 42  1  6  0  0  0
 20 19  1  0  0  0  0
 20 21  1  0  0  0  0
 21 44  1  1  0  0  0
 21 22  1  0  0  0  0
 22 24  2  0  0  0  0
 23 22  1  0  0  0  0
 24 25  1  0  0  0  0
 25 26  1  6  0  0  0
 25 27  1  0  0  0  0
 27 28  1  1  0  0  0
 28 32  1  0  0  0  0
 29 30  2  0  0  0  0
 29  6  1  0  0  0  0
 34 33  1  0  0  0  0
 35 37  1  0  0  0  0
 35 36  1  0  0  0  0
 38 37  1  0  0  0  0
 39 38  1  0  0  0  0
 40 39  1  0  0  0  0
 41 39  1  0  0  0  0
 43 42  1  0  0  0  0
 44 45  1  0  0  0  0
 45 47  2  0  0  0  0
 46 45  1  0  0  0  0
 46 48  1  0  0  0  0
 46 49  1  0  0  0  0
M  END
>  <minimizedAffinity>
5.01766

$$$$
