
 OpenBabel07192215303D

 32 34  0  0  0  0  0  0  0  0999 V2000
    4.7264   11.8146   23.7208 C   0  0  0  0  0  0  0  0  0  0  0  0
    4.3087   12.8916   24.3207 N   0  0  0  0  0  0  0  0  0  0  0  0
    5.5024   13.6969   24.5063 C   0  0  0  0  0  0  0  0  0  0  0  0
    5.6721   14.9198   25.0510 C   0  0  0  0  0  0  0  0  0  0  0  0
    4.6428   15.7267   25.6675 N   0  0  0  0  0  0  0  0  0  0  0  0
    6.5862   13.0946   23.9713 C   0  0  0  0  0  0  0  0  0  0  0  0
    7.7745   13.6145   23.9275 N   0  0  0  0  0  0  0  0  0  0  0  0
    7.9145   14.8047   24.4725 C   0  0  0  0  0  0  0  0  0  0  0  0
    6.9081   15.3977   25.0195 N   0  0  0  0  0  0  0  0  0  0  0  0
    6.1534   11.8630   23.4061 N   0  0  0  0  0  0  0  0  0  0  0  0
    9.1110   15.4352   24.4878 F   0  0  0  0  0  0  0  0  0  0  0  0
    3.7158   15.3973   25.7053 H   0  0  0  0  0  0  0  0  0  0  0  0
    4.8689   16.6054   26.0494 H   0  0  0  0  0  0  0  0  0  0  0  0
    3.8810   10.6385   23.3230 C   0  0  0  0  0  0  0  0  0  0  0  0
    1.3758   12.5717   22.5931 Cl  0  0  0  0  0  0  0  0  0  0  0  0
    1.4363   11.2932   23.8148 C   0  0  0  0  0  0  0  0  0  0  0  0
    0.3499   11.0338   24.6256 C   0  0  0  0  0  0  0  0  0  0  0  0
    0.3589   10.0824   25.5912 C   0  0  0  0  0  0  0  0  0  0  0  0
    1.4251    9.3285   25.8523 C   0  0  0  0  0  0  0  0  0  0  0  0
    2.5666    9.5278   25.0914 C   0  0  0  0  0  0  0  0  0  0  0  0
    2.5852   10.4988   24.0893 C   0  0  0  0  0  0  0  0  0  0  0  0
   -0.8952   11.6536   24.6214 O   0  0  0  0  0  0  0  0  0  0  0  0
   -1.7750   11.6988   23.5472 C   0  0  0  0  0  0  0  0  0  0  0  0
   -0.8230    9.9042   26.3114 O   0  0  0  0  0  0  0  0  0  0  0  0
   -0.9087   10.4284   27.6303 C   0  0  0  0  0  0  0  0  0  0  0  0
    1.2511    8.3346   26.8382 O   0  0  0  0  0  0  0  0  0  0  0  0
    2.3868    8.1005   27.6919 C   0  0  0  0  0  0  0  0  0  0  0  0
    6.9982   10.8270   22.7853 C   0  0  0  0  0  0  0  0  0  0  0  0
    7.8490   10.1338   23.8337 C   0  0  0  0  0  0  0  0  0  0  0  0
    7.8697    8.6295   23.8506 C   0  0  0  0  0  0  0  0  0  0  0  0
    6.5622    7.8381   24.0085 C   0  0  0  0  0  0  0  0  0  0  0  0
    5.5737    7.2207   24.1884 C   0  0  0  0  0  0  0  0  0  0  0  0
  1 10  1  0  0  0  0
  2  1  2  0  0  0  0
  2  3  1  0  0  0  0
  3  4  1  0  0  0  0
  3  6  2  0  0  0  0
  4  9  2  0  0  0  0
  5  4  1  0  0  0  0
  5 12  1  0  0  0  0
  5 13  1  0  0  0  0
  6  7  1  0  0  0  0
  7  8  2  0  0  0  0
  8 11  1  0  0  0  0
  9  8  1  0  0  0  0
 10  6  1  0  0  0  0
 10 28  1  0  0  0  0
 14 21  1  0  0  0  0
 14  1  1  0  0  0  0
 16 15  1  0  0  0  0
 16 17  1  0  0  0  0
 17 22  1  0  0  0  0
 18 17  2  0  0  0  0
 18 24  1  0  0  0  0
 19 26  1  0  0  0  0
 19 18  1  0  0  0  0
 20 21  1  0  0  0  0
 20 19  2  0  0  0  0
 21 16  2  0  0  0  0
 22 23  1  0  0  0  0
 25 24  1  0  0  0  0
 27 26  1  0  0  0  0
 29 28  1  0  0  0  0
 30 29  1  0  0  0  0
 31 30  1  0  0  0  0
 32 31  3  0  0  0  0
M  END
>  <minimizedAffinity>
-10.12012

$$$$
