
 OpenBabel07192215303D

 24 26  0  0  0  0  0  0  0  0999 V2000
    1.8202   11.9811   22.4470 N   0  0  0  0  0  0  0  0  0  0  0  0
    0.5504   12.2275   22.3749 C   0  0  0  0  0  0  0  0  0  0  0  0
   -0.0702   12.9445   21.4647 N   0  0  0  0  0  0  0  0  0  0  0  0
   -1.3681   13.0631   21.6452 C   0  0  0  0  0  0  0  0  0  0  0  0
   -2.0960   12.5606   22.6350 N   0  0  0  0  0  0  0  0  0  0  0  0
   -0.0923   11.6568   23.4125 C   0  0  0  0  0  0  0  0  0  0  0  0
   -1.4512   11.8686   23.5565 C   0  0  0  0  0  0  0  0  0  0  0  0
   -2.2263   11.3276   24.6227 N   0  0  0  0  0  0  0  0  0  0  0  0
    0.8006   11.0358   24.1798 N   0  0  0  0  0  0  0  0  0  0  0  0
    1.9870   11.2644   23.5680 C   0  0  0  0  0  0  0  0  0  0  0  0
   -2.1501   13.9052   20.5208 F   0  0  0  0  0  0  0  0  0  0  0  0
   -1.7891   10.8045   25.3329 H   0  0  0  0  0  0  0  0  0  0  0  0
   -3.1990   11.4770   24.6492 H   0  0  0  0  0  0  0  0  0  0  0  0
    3.3435   10.7651   23.9547 C   0  0  0  0  0  0  0  0  0  0  0  0
    5.7003   11.5909   23.6971 C   0  0  0  0  0  0  0  0  0  0  0  0
    4.3839   11.8618   24.0333 C   0  0  0  0  0  0  0  0  0  0  0  0
    4.0181   13.1183   24.4558 C   0  0  0  0  0  0  0  0  0  0  0  0
    6.6888   12.5564   23.7263 C   0  0  0  0  0  0  0  0  0  0  0  0
    6.3341   13.8380   24.1313 C   0  0  0  0  0  0  0  0  0  0  0  0
    5.0019   14.1061   24.4871 C   0  0  0  0  0  0  0  0  0  0  0  0
    7.3959    9.9613   23.0181 C   0  0  0  0  0  0  0  0  0  0  0  0
    6.0212   10.2948   23.3035 O   0  0  0  0  0  0  0  0  0  0  0  0
    4.5912   15.3946   24.9384 O   0  0  0  0  0  0  0  0  0  0  0  0
    4.4407   15.7097   26.3287 C   0  0  0  0  0  0  0  0  0  0  0  0
  1  2  2  0  0  0  0
  2  3  1  0  0  0  0
  3  4  2  0  0  0  0
  4 11  1  0  0  0  0
  5  4  1  0  0  0  0
  6  7  1  0  0  0  0
  6  2  1  0  0  0  0
  7  5  2  0  0  0  0
  8  7  1  0  0  0  0
  8 12  1  0  0  0  0
  8 13  1  0  0  0  0
  9 10  1  0  0  0  0
  9  6  2  0  0  0  0
 10  1  2  0  0  0  0
 14 16  1  0  0  0  0
 14 10  1  0  0  0  0
 15 16  2  0  0  0  0
 15 18  1  0  0  0  0
 16 17  1  0  0  0  0
 17 20  2  0  0  0  0
 18 19  2  0  0  0  0
 19 20  1  0  0  0  0
 20 23  1  0  0  0  0
 22 21  1  0  0  0  0
 22 15  1  0  0  0  0
 23 24  1  0  0  0  0
M  END
>  <minimizedAffinity>
-8.58205

$$$$
