


 29 31  0  0  0  0  0  0  0  0999 V2000
    4.5896   11.8606   23.7611 C   0  0  0  0  0  0  0  0  0  0  0  0
    4.1567   12.9494   24.4055 N   0  0  0  0  0  0  0  0  0  0  0  0
    5.2873   13.6851   24.5056 C   0  0  0  0  0  0  0  0  0  0  0  0
    5.6205   14.9580   25.1273 C   0  0  0  0  0  0  0  0  0  0  0  0
    4.6746   15.6784   25.7593 N   0  0  0  0  0  0  0  0  0  0  0  0
    6.4024   12.9674   23.8999 C   0  0  0  0  0  0  0  0  0  0  0  0
    7.6420   13.4875   23.8680 N   0  0  0  0  0  0  0  0  0  0  0  0
    7.8609   14.7071   24.4108 C   0  0  0  0  0  0  0  0  0  0  0  0
    6.8805   15.4254   25.0154 N   0  0  0  0  0  0  0  0  0  0  0  0
    5.8976   11.8441   23.4324 N   0  0  0  0  0  0  0  0  0  0  0  0
    3.7578   15.3278   25.8354 H   0  0  0  0  0  0  0  0  0  0  0  0
    4.8998   16.5556   26.1453 H   0  0  0  0  0  0  0  0  0  0  0  0
    3.6472   10.7647   23.3304 C   0  0  0  0  0  0  0  0  0  0  0  0
    0.1988   10.1577   24.8511 C   0  0  0  0  0  0  0  0  0  0  0  0
    1.2625   10.5567   24.0158 C   0  0  0  0  0  0  0  0  0  0  0  0
    0.5288    9.4237   26.0545 C   0  0  0  0  0  0  0  0  0  0  0  0
    1.9254    9.1543   26.3543 C   0  0  0  0  0  0  0  0  0  0  0  0
    2.9459    9.6043   25.4942 C   0  0  0  0  0  0  0  0  0  0  0  0
    2.5913   10.3103   24.3220 C   0  0  0  0  0  0  0  0  0  0  0  0
   -1.4052   11.6400   23.7977 C   0  0  0  0  0  0  0  0  0  0  0  0
   -1.1216   10.4921   24.6356 O   0  0  0  0  0  0  0  0  0  0  0  0
   -0.4291    9.0003   26.9095 O   0  0  0  0  0  0  0  0  0  0  0  0
   -0.9422    9.9717   27.8410 C   0  0  0  0  0  0  0  0  0  0  0  0
    2.1010    8.3932   27.4937 O   0  0  0  0  0  0  0  0  0  0  0  0
    2.5898    7.0823   27.4323 C   0  0  0  0  0  0  0  0  0  0  0  0
    6.6953   10.7983   22.7912 C   0  0  0  0  0  0  0  0  0  0  0  0
    7.3005    9.9792   23.9298 C   0  0  0  0  0  0  0  0  0  0  0  0
    6.8816    8.5201   23.9466 C   0  0  0  0  0  0  0  0  0  0  0  0
    8.1783    7.7025   23.9858 C   0  0  0  0  0  0  0  0  0  0  0  0
 20 21  1  0  0  0
 13 19  1  0  0  0
 13  1  1  0  0  0
 15 19  1  0  0  0
 15 14  2  0  0  0
  2  1  2  0  0  0
  2  3  1  0  0  0
 19 18  2  0  0  0
 21 14  1  0  0  0
  1 10  1  0  0  0
 14 16  1  0  0  0
  5  4  1  0  0  0
 28 29  1  0  0  0
 28 27  1  0  0  0
 18 17  1  0  0  0
  3  4  2  0  0  0
  3  6  1  0  0  0
 23 22  1  0  0  0
 16 17  2  0  0  0
 16 22  1  0  0  0
 17 24  1  0  0  0
  4  9  1  0  0  0
 10  6  1  0  0  0
 10 26  1  0  0  0
 27 26  1  0  0  0
  6  7  2  0  0  0
 24 25  1  0  0  0
  9  8  2  0  0  0
  7  8  1  0  0  0
  5 11  1  0  0  0
  5 12  1  0  0  0
M  END
> <minimizedAffinity>
-9.08633

$$$$



 29 31  0  0  0  0  0  0  0  0999 V2000
    4.7214   11.7560   23.7259 C   0  0  0  0  0  0  0  0  0  0  0  0
    4.2137   12.8247   24.3492 N   0  0  0  0  0  0  0  0  0  0  0  0
    5.3003   13.6206   24.4730 C   0  0  0  0  0  0  0  0  0  0  0  0
    5.5482   14.9139   25.0925 C   0  0  0  0  0  0  0  0  0  0  0  0
    4.5485   15.5871   25.6929 N   0  0  0  0  0  0  0  0  0  0  0  0
    6.4681   12.9594   23.9035 C   0  0  0  0  0  0  0  0  0  0  0  0
    7.6786   13.5449   23.9001 N   0  0  0  0  0  0  0  0  0  0  0  0
    7.8173   14.7783   24.4381 C   0  0  0  0  0  0  0  0  0  0  0  0
    6.7840   15.4473   25.0101 N   0  0  0  0  0  0  0  0  0  0  0  0
    6.0367   11.8073   23.4323 N   0  0  0  0  0  0  0  0  0  0  0  0
    3.6499   15.1885   25.7475 H   0  0  0  0  0  0  0  0  0  0  0  0
    4.7160   16.4778   26.0772 H   0  0  0  0  0  0  0  0  0  0  0  0
    3.8507   10.6083   23.2797 C   0  0  0  0  0  0  0  0  0  0  0  0
    2.0064    9.2303   26.3248 C   0  0  0  0  0  0  0  0  0  0  0  0
    2.9968    9.6217   25.4004 C   0  0  0  0  0  0  0  0  0  0  0  0
    0.6253    9.4965   25.9823 C   0  0  0  0  0  0  0  0  0  0  0  0
    0.3249   10.1268   24.7073 C   0  0  0  0  0  0  0  0  0  0  0  0
    1.3574   10.4690   23.8126 C   0  0  0  0  0  0  0  0  0  0  0  0
    2.6967   10.2049   24.1797 C   0  0  0  0  0  0  0  0  0  0  0  0
    2.5307    7.1192   27.3961 C   0  0  0  0  0  0  0  0  0  0  0  0
    2.2654    8.5407   27.4906 O   0  0  0  0  0  0  0  0  0  0  0  0
   -0.3869    9.1574   26.8119 O   0  0  0  0  0  0  0  0  0  0  0  0
   -0.8460   10.1734   27.7238 C   0  0  0  0  0  0  0  0  0  0  0  0
   -1.0210   10.3831   24.5301 O   0  0  0  0  0  0  0  0  0  0  0  0
   -1.4684   11.5464   23.8915 C   0  0  0  0  0  0  0  0  0  0  0  0
    6.9062   10.8012   22.8216 C   0  0  0  0  0  0  0  0  0  0  0  0
    7.5645   10.0592   23.9833 C   0  0  0  0  0  0  0  0  0  0  0  0
    7.9007    8.6076   23.6926 C   0  0  0  0  0  0  0  0  0  0  0  0
    6.6433    7.7997   24.0355 C   0  0  0  0  0  0  0  0  0  0  0  0
 20 21  1  0  0  0
 13 19  1  0  0  0
 13  1  1  0  0  0
 15 19  1  0  0  0
 15 14  2  0  0  0
  2  1  2  0  0  0
  2  3  1  0  0  0
 19 18  2  0  0  0
 21 14  1  0  0  0
  1 10  1  0  0  0
 14 16  1  0  0  0
  5  4  1  0  0  0
 28 29  1  0  0  0
 28 27  1  0  0  0
 18 17  1  0  0  0
  3  4  2  0  0  0
  3  6  1  0  0  0
 23 22  1  0  0  0
 16 17  2  0  0  0
 16 22  1  0  0  0
 17 24  1  0  0  0
  4  9  1  0  0  0
 10  6  1  0  0  0
 10 26  1  0  0  0
 27 26  1  0  0  0
  6  7  2  0  0  0
 24 25  1  0  0  0
  9  8  2  0  0  0
  7  8  1  0  0  0
  5 11  1  0  0  0
  5 12  1  0  0  0
M  END
> <minimizedAffinity>
-9.06518

$$$$



 29 31  0  0  0  0  0  0  0  0999 V2000
    2.0098   10.6145   24.7222 C   0  0  0  0  0  0  0  0  0  0  0  0
    2.2584    9.6041   25.5621 N   0  0  0  0  0  0  0  0  0  0  0  0
    1.1749    9.6375   26.3709 C   0  0  0  0  0  0  0  0  0  0  0  0
    0.7625    8.8906   27.5499 C   0  0  0  0  0  0  0  0  0  0  0  0
    1.5337    7.8993   28.0353 N   0  0  0  0  0  0  0  0  0  0  0  0
    0.2889   10.7238   25.9702 C   0  0  0  0  0  0  0  0  0  0  0  0
   -0.8638   10.9691   26.6176 N   0  0  0  0  0  0  0  0  0  0  0  0
   -1.2112   10.1891   27.6668 C   0  0  0  0  0  0  0  0  0  0  0  0
   -0.4277    9.1758   28.1160 N   0  0  0  0  0  0  0  0  0  0  0  0
    0.8549   11.2825   24.9201 N   0  0  0  0  0  0  0  0  0  0  0  0
    2.4010    7.6994   27.6145 H   0  0  0  0  0  0  0  0  0  0  0  0
    1.2303    7.3745   28.8111 H   0  0  0  0  0  0  0  0  0  0  0  0
    2.9148   10.9186   23.5548 C   0  0  0  0  0  0  0  0  0  0  0  0
    6.5491   12.0823   23.6579 C   0  0  0  0  0  0  0  0  0  0  0  0
    5.3702   11.3269   23.4902 C   0  0  0  0  0  0  0  0  0  0  0  0
    6.4135   13.4404   24.1406 C   0  0  0  0  0  0  0  0  0  0  0  0
    5.0871   13.9494   24.4478 C   0  0  0  0  0  0  0  0  0  0  0  0
    3.9488   13.1358   24.2865 C   0  0  0  0  0  0  0  0  0  0  0  0
    4.1127   11.8171   23.8043 C   0  0  0  0  0  0  0  0  0  0  0  0
    7.9777   10.1487   23.3422 C   0  0  0  0  0  0  0  0  0  0  0  0
    7.8209   11.5837   23.4693 O   0  0  0  0  0  0  0  0  0  0  0  0
    7.4910   14.2354   24.3268 O   0  0  0  0  0  0  0  0  0  0  0  0
    8.1044   14.2017   25.6296 C   0  0  0  0  0  0  0  0  0  0  0  0
    5.0889   15.2749   24.8370 O   0  0  0  0  0  0  0  0  0  0  0  0
    4.5356   15.6820   26.0574 C   0  0  0  0  0  0  0  0  0  0  0  0
    0.3161   12.4575   24.2342 C   0  0  0  0  0  0  0  0  0  0  0  0
   -0.9673   11.9888   23.5511 C   0  0  0  0  0  0  0  0  0  0  0  0
   -1.2199   12.6136   22.1907 C   0  0  0  0  0  0  0  0  0  0  0  0
    0.1594   12.9472   21.6096 C   0  0  0  0  0  0  0  0  0  0  0  0
 20 21  1  0  0  0
 13 19  1  0  0  0
 13  1  1  0  0  0
 15 19  1  0  0  0
 15 14  2  0  0  0
  2  1  2  0  0  0
  2  3  1  0  0  0
 19 18  2  0  0  0
 21 14  1  0  0  0
  1 10  1  0  0  0
 14 16  1  0  0  0
  5  4  1  0  0  0
 28 29  1  0  0  0
 28 27  1  0  0  0
 18 17  1  0  0  0
  3  4  2  0  0  0
  3  6  1  0  0  0
 23 22  1  0  0  0
 16 17  2  0  0  0
 16 22  1  0  0  0
 17 24  1  0  0  0
  4  9  1  0  0  0
 10  6  1  0  0  0
 10 26  1  0  0  0
 27 26  1  0  0  0
  6  7  2  0  0  0
 24 25  1  0  0  0
  9  8  2  0  0  0
  7  8  1  0  0  0
  5 11  1  0  0  0
  5 12  1  0  0  0
M  END
> <minimizedAffinity>
-8.81607

$$$$
