
 OpenBabel07192215303D

 24 26  0  0  0  0  0  0  0  0999 V2000
    5.9652    9.8238   24.1823 N   0  0  0  0  0  0  0  0  0  0  0  0
    5.2758    8.8882   23.6101 C   0  0  0  0  0  0  0  0  0  0  0  0
    4.6684    7.8785   24.1925 N   0  0  0  0  0  0  0  0  0  0  0  0
    4.0615    7.0499   23.3700 C   0  0  0  0  0  0  0  0  0  0  0  0
    4.0136    7.1163   22.0451 N   0  0  0  0  0  0  0  0  0  0  0  0
    5.2766    9.0626   22.2741 C   0  0  0  0  0  0  0  0  0  0  0  0
    4.6548    8.1203   21.4756 C   0  0  0  0  0  0  0  0  0  0  0  0
    4.6087    8.1967   20.0535 N   0  0  0  0  0  0  0  0  0  0  0  0
    6.0027   10.1397   21.9835 N   0  0  0  0  0  0  0  0  0  0  0  0
    6.4348   10.5886   23.1859 C   0  0  0  0  0  0  0  0  0  0  0  0
    3.2809    5.8293   24.0669 F   0  0  0  0  0  0  0  0  0  0  0  0
    5.0720    8.9279   19.5845 H   0  0  0  0  0  0  0  0  0  0  0  0
    4.1137    7.5182   19.5399 H   0  0  0  0  0  0  0  0  0  0  0  0
    7.2552   11.8040   23.4841 C   0  0  0  0  0  0  0  0  0  0  0  0
    7.0856   14.0587   24.5751 C   0  0  0  0  0  0  0  0  0  0  0  0
    6.4431   12.9485   24.0516 C   0  0  0  0  0  0  0  0  0  0  0  0
    5.0702   12.8708   24.0601 C   0  0  0  0  0  0  0  0  0  0  0  0
    6.3980   15.1438   25.0849 C   0  0  0  0  0  0  0  0  0  0  0  0
    5.0089   15.0925   25.0834 C   0  0  0  0  0  0  0  0  0  0  0  0
    4.3601   13.9587   24.5667 C   0  0  0  0  0  0  0  0  0  0  0  0
    9.1863   14.6280   25.6953 C   0  0  0  0  0  0  0  0  0  0  0  0
    8.4775   14.0728   24.5675 O   0  0  0  0  0  0  0  0  0  0  0  0
    2.9392   13.8418   24.5691 O   0  0  0  0  0  0  0  0  0  0  0  0
    2.2617   12.6976   24.0337 C   0  0  0  0  0  0  0  0  0  0  0  0
  1  2  2  0  0  0  0
  2  3  1  0  0  0  0
  3  4  2  0  0  0  0
  4 11  1  0  0  0  0
  5  4  1  0  0  0  0
  6  7  1  0  0  0  0
  6  2  1  0  0  0  0
  7  5  2  0  0  0  0
  8  7  1  0  0  0  0
  8 12  1  0  0  0  0
  8 13  1  0  0  0  0
  9 10  1  0  0  0  0
  9  6  2  0  0  0  0
 10  1  2  0  0  0  0
 14 16  1  0  0  0  0
 14 10  1  0  0  0  0
 15 16  2  0  0  0  0
 15 18  1  0  0  0  0
 16 17  1  0  0  0  0
 17 20  2  0  0  0  0
 18 19  2  0  0  0  0
 19 20  1  0  0  0  0
 20 23  1  0  0  0  0
 22 21  1  0  0  0  0
 22 15  1  0  0  0  0
 23 24  1  0  0  0  0
M  END
>  <minimizedAffinity>
-8.44415

$$$$
