
 OpenBabel07192215303D

 49 50  0  0  0  0  0  0  0  0999 V2000
    3.2344    6.8975   22.5711 C   0  0  1  0  0  0  0  0  0  0  0  0
    2.7573    6.1227   23.8655 C   0  0  0  0  0  0  0  0  0  0  0  0
    1.2501    5.8101   24.1669 C   0  0  2  0  0  0  0  0  0  0  0  0
    0.4192    7.0037   23.6338 C   0  0  0  0  0  0  0  0  0  0  0  0
    0.9197    5.4456   25.7625 C   0  0  0  0  0  0  0  0  0  0  0  0
    1.3732    6.5296   26.7964 C   0  0  0  0  0  0  0  0  0  0  0  0
    2.5777    6.6395   27.5264 C   0  0  0  0  0  0  0  0  0  0  0  0
    2.8818    7.7784   28.4759 C   0  0  0  0  0  0  0  0  0  0  0  0
    3.9732    7.7929   29.0515 O   0  0  0  0  0  0  0  0  0  0  0  0
    1.8470    8.8424   28.6846 C   0  0  0  0  0  0  0  0  0  0  0  0
    0.6332    8.7825   28.0232 C   0  0  0  0  0  0  0  0  0  0  0  0
   -0.4597    9.6959   28.1288 N   0  0  0  0  0  0  0  0  0  0  0  0
   -1.3066   10.4925   27.2606 C   0  0  0  0  0  0  0  0  0  0  0  0
   -2.1122   11.1034   27.7770 O   0  0  0  0  0  0  0  0  0  0  0  0
   -1.0703   10.4423   25.7344 C   0  0  0  0  0  0  0  0  0  0  0  0
   -2.2827   10.1113   24.8973 C   0  0  0  0  0  0  0  0  0  0  0  0
    0.1997   10.6769   25.2566 C   0  0  0  0  0  0  0  0  0  0  0  0
    0.6899   10.6655   23.8725 C   0  0  0  0  0  0  0  0  0  0  0  0
    1.7776   11.2857   23.4330 C   0  0  0  0  0  0  0  0  0  0  0  0
    2.7266   12.1269   24.2402 C   0  0  1  0  0  0  0  0  0  0  0  0
    4.2339   11.6891   24.0951 C   0  0  2  0  0  0  0  0  0  0  0  0
    4.5983   10.1434   24.4815 C   0  0  0  0  0  0  0  0  0  0  0  0
    4.4181    9.7479   25.9433 C   0  0  0  0  0  0  0  0  0  0  0  0
    5.0322    9.3589   23.5349 C   0  0  0  0  0  0  0  0  0  0  0  0
    5.4698    7.9079   23.5594 C   0  0  2  0  0  0  0  0  0  0  0  0
    7.0031    7.9933   23.3956 C   0  0  0  0  0  0  0  0  0  0  0  0
    4.8027    7.0550   22.4711 C   0  0  1  0  0  0  0  0  0  0  0  0
    5.3458    5.7004   22.6437 O   0  0  0  0  0  0  0  0  0  0  0  0
    0.3485    7.6062   27.0396 C   0  0  0  0  0  0  0  0  0  0  0  0
   -0.7420    7.5569   26.4418 O   0  0  0  0  0  0  0  0  0  0  0  0
   -0.7142    9.8230   29.0713 H   0  0  0  0  0  0  0  0  0  0  0  0
    5.1032    5.3641   23.5206 H   0  0  0  0  0  0  0  0  0  0  0  0
    3.7238    5.9914   20.1984 C   0  0  0  0  0  0  0  0  0  0  0  0
    2.7409    6.1111   21.4733 O   0  0  0  0  0  0  0  0  0  0  0  0
    3.6466    5.6664   27.4370 N   0  0  0  0  0  0  0  0  0  0  0  0
    3.4119    4.7182   27.5596 H   0  0  0  0  0  0  0  0  0  0  0  0
    5.0445    5.9884   27.1786 C   0  0  0  0  0  0  0  0  0  0  0  0
    6.1788    5.4601   28.1421 C   0  0  0  0  0  0  0  0  0  0  0  0
    6.6070    6.0023   29.5224 N   0  0  0  0  0  0  0  0  0  0  0  0
    7.8703    5.4416   29.9200 C   0  0  0  0  0  0  0  0  0  0  0  0
    5.7849    5.6094   30.6279 C   0  0  0  0  0  0  0  0  0  0  0  0
    2.7163   13.5883   23.8234 O   0  0  0  0  0  0  0  0  0  0  0  0
    1.7008   14.4338   24.2279 C   0  0  0  0  0  0  0  0  0  0  0  0
    5.0435   12.5146   24.8913 O   0  0  0  0  0  0  0  0  0  0  0  0
    6.1617   13.0945   24.2598 C   0  0  0  0  0  0  0  0  0  0  0  0
    6.0951   14.4317   24.4249 N   0  0  0  0  0  0  0  0  0  0  0  0
    7.0538   12.5080   23.6642 O   0  0  0  0  0  0  0  0  0  0  0  0
    5.3422   14.8299   24.9186 H   0  0  0  0  0  0  0  0  0  0  0  0
    6.7995   15.0095   24.0517 H   0  0  0  0  0  0  0  0  0  0  0  0
  1 27  1  0  0  0  0
  1 34  1  6  0  0  0
  2  1  1  0  0  0  0
  3  4  1  1  0  0  0
  3  2  1  0  0  0  0
  5  3  1  0  0  0  0
  6  5  1  0  0  0  0
  7  6  2  0  0  0  0
  7 35  1  0  0  0  0
  8  7  1  0  0  0  0
  9  8  2  0  0  0  0
 10 11  2  0  0  0  0
 10  8  1  0  0  0  0
 11 29  1  0  0  0  0
 12 13  1  0  0  0  0
 12 11  1  0  0  0  0
 12 31  1  0  0  0  0
 13 15  1  0  0  0  0
 14 13  2  0  0  0  0
 15 16  1  0  0  0  0
 15 17  2  0  0  0  0
 17 18  1  0  0  0  0
 18 19  2  0  0  0  0
 20 42  1  6  0  0  0
 20 19  1  0  0  0  0
 20 21  1  0  0  0  0
 21 44  1  1  0  0  0
 21 22  1  0  0  0  0
 22 24  2  0  0  0  0
 23 22  1  0  0  0  0
 24 25  1  0  0  0  0
 25 26  1  6  0  0  0
 25 27  1  0  0  0  0
 27 28  1  1  0  0  0
 28 32  1  0  0  0  0
 29 30  2  0  0  0  0
 29  6  1  0  0  0  0
 34 33  1  0  0  0  0
 35 37  1  0  0  0  0
 35 36  1  0  0  0  0
 38 37  1  0  0  0  0
 39 38  1  0  0  0  0
 40 39  1  0  0  0  0
 41 39  1  0  0  0  0
 43 42  1  0  0  0  0
 44 45  1  0  0  0  0
 45 47  2  0  0  0  0
 46 45  1  0  0  0  0
 46 48  1  0  0  0  0
 46 49  1  0  0  0  0
M  END
>  <minimizedAffinity>
3.04125

$$$$
