
 OpenBabel07192215303D

 26 29  0  0  0  0  0  0  0  0999 V2000
    5.3806   11.7942   23.3561 N   0  0  0  0  0  0  0  0  0  0  0  0
    5.6416   12.9606   24.0054 C   0  0  0  0  0  0  0  0  0  0  0  0
    4.7818   13.8442   24.5691 N   0  0  0  0  0  0  0  0  0  0  0  0
    5.3154   14.9339   25.1641 C   0  0  0  0  0  0  0  0  0  0  0  0
    6.6533   15.1420   25.1890 N   0  0  0  0  0  0  0  0  0  0  0  0
    7.0135   13.1571   24.0387 C   0  0  0  0  0  0  0  0  0  0  0  0
    7.5378   14.2781   24.6322 C   0  0  0  0  0  0  0  0  0  0  0  0
    8.8831   14.5403   24.6722 N   0  0  0  0  0  0  0  0  0  0  0  0
    7.5439   12.0887   23.4159 N   0  0  0  0  0  0  0  0  0  0  0  0
    6.5727   11.2549   22.9893 C   0  0  0  0  0  0  0  0  0  0  0  0
    9.5200   13.9090   24.2661 H   0  0  0  0  0  0  0  0  0  0  0  0
    9.2121   15.3600   25.1072 H   0  0  0  0  0  0  0  0  0  0  0  0
    4.0553   11.2107   23.1173 C   0  0  0  0  0  0  0  0  0  0  0  0
    3.3713   11.0389   24.4872 C   0  0  0  0  0  0  0  0  0  0  0  0
    1.4751   12.6091   23.7332 C   0  0  0  0  0  0  0  0  0  0  0  0
    1.8628   11.3315   24.4773 C   0  0  0  0  0  0  0  0  0  0  0  0
    6.7209    9.9438   22.2517 C   0  0  0  0  0  0  0  0  0  0  0  0
    6.8005    8.8225   23.2763 C   0  0  0  0  0  0  0  0  0  0  0  0
    5.6401    8.1336   23.6987 C   0  0  0  0  0  0  0  0  0  0  0  0
    5.8056    7.1389   24.6557 C   0  0  0  0  0  0  0  0  0  0  0  0
    8.0579    8.5038   23.8138 C   0  0  0  0  0  0  0  0  0  0  0  0
    4.8608    6.3128   25.2419 O   0  0  0  0  0  0  0  0  0  0  0  0
    8.1845    7.4961   24.7767 C   0  0  0  0  0  0  0  0  0  0  0  0
    7.0329    6.8387   25.1793 C   0  0  0  0  0  0  0  0  0  0  0  0
    6.8938    5.8075   26.1080 O   0  0  0  0  0  0  0  0  0  0  0  0
    5.5096    5.4403   26.1794 C   0  0  0  0  0  0  0  0  0  0  0  0
  1  2  1  0  0  0  0
  1 13  1  0  0  0  0
  2  3  1  0  0  0  0
  3  4  2  0  0  0  0
  5  4  1  0  0  0  0
  6  7  1  0  0  0  0
  6  2  2  0  0  0  0
  7  5  2  0  0  0  0
  8  7  1  0  0  0  0
  8 11  1  0  0  0  0
  8 12  1  0  0  0  0
  9 10  2  0  0  0  0
  9  6  1  0  0  0  0
 10  1  1  0  0  0  0
 14 13  1  0  0  0  0
 15 16  1  0  0  0  0
 16 14  1  0  0  0  0
 17 18  1  0  0  0  0
 17 10  1  0  0  0  0
 18 19  1  0  0  0  0
 19 20  2  0  0  0  0
 20 22  1  0  0  0  0
 21 18  2  0  0  0  0
 21 23  1  0  0  0  0
 22 26  1  0  0  0  0
 23 24  2  0  0  0  0
 24 20  1  0  0  0  0
 24 25  1  0  0  0  0
 25 26  1  0  0  0  0
M  END
>  <minimizedAffinity>
-9.30588

$$$$
