


 25 27  0  0  0  0  0  0  0  0999 V2000
    5.6016   11.8747   23.5778 N   0  0  0  0  0  0  0  0  0  0  0  0
    6.2198   12.9699   23.9688 C   0  0  0  0  0  0  0  0  0  0  0  0
    7.4810   13.4042   23.8930 N   0  0  0  0  0  0  0  0  0  0  0  0
    7.8004   14.5977   24.4322 C   0  0  0  0  0  0  0  0  0  0  0  0
    6.8974   15.4416   24.9846 N   0  0  0  0  0  0  0  0  0  0  0  0
    5.1803   13.8150   24.5486 C   0  0  0  0  0  0  0  0  0  0  0  0
    5.6026   15.0728   25.1074 C   0  0  0  0  0  0  0  0  0  0  0  0
    4.6815   15.8440   25.6855 N   0  0  0  0  0  0  0  0  0  0  0  0
    4.0299   13.1639   24.4439 N   0  0  0  0  0  0  0  0  0  0  0  0
    4.3174   11.9708   23.8852 C   0  0  0  0  0  0  0  0  0  0  0  0
    3.7499   15.5326   25.7519 H   0  0  0  0  0  0  0  0  0  0  0  0
    4.9329   16.7249   26.0461 H   0  0  0  0  0  0  0  0  0  0  0  0
    6.2524   10.7488   22.8892 C   0  0  0  0  0  0  0  0  0  0  0  0
    7.0738    9.9746   23.9179 C   0  0  0  0  0  0  0  0  0  0  0  0
    8.1232    7.6793   23.9948 C   0  0  0  0  0  0  0  0  0  0  0  0
    8.0185    9.1214   23.4751 C   0  0  0  0  0  0  0  0  0  0  0  0
    3.3056   10.9007   23.5633 C   0  0  0  0  0  0  0  0  0  0  0  0
    1.5205   12.3249   22.5050 C   0  0  0  0  0  0  0  0  0  0  0  0
    1.9085   11.4800   23.5585 C   0  0  0  0  0  0  0  0  0  0  0  0
    1.0315   11.1229   24.5633 C   0  0  0  0  0  0  0  0  0  0  0  0
    0.2310   12.8363   22.4932 C   0  0  0  0  0  0  0  0  0  0  0  0
   -0.6436   12.4922   23.5042 C   0  0  0  0  0  0  0  0  0  0  0  0
   -0.2504   11.6191   24.5103 C   0  0  0  0  0  0  0  0  0  0  0  0
   -1.0981   11.2814   25.5301 O   0  0  0  0  0  0  0  0  0  0  0  0
   -0.6856   10.5243   26.6729 C   0  0  0  0  0  0  0  0  0  0  0  0
 17 19  1  0  0  0
 17 10  1  0  0  0
 18 19  2  0  0  0
 18 21  1  0  0  0
 19 20  1  0  0  0
  9 10  2  0  0  0
  9  6  1  0  0  0
 15 16  1  0  0  0
 10  1  1  0  0  0
 21 22  2  0  0  0
 16 14  1  0  0  0
  8  7  1  0  0  0
 20 23  2  0  0  0
 22 23  1  0  0  0
 23 24  1  0  0  0
  6  7  1  0  0  0
  6  2  2  0  0  0
  7  5  2  0  0  0
  1  2  1  0  0  0
  1 13  1  0  0  0
 24 25  1  0  0  0
 14 13  1  0  0  0
  2  3  1  0  0  0
  5  4  1  0  0  0
  3  4  2  0  0  0
  8 11  1  0  0  0
  8 12  1  0  0  0
M  END
> <minimizedAffinity>
-9.65175

$$$$



 25 27  0  0  0  0  0  0  0  0999 V2000
    5.9102   11.8146   23.4973 N   0  0  0  0  0  0  0  0  0  0  0  0
    6.4184   12.9434   23.9469 C   0  0  0  0  0  0  0  0  0  0  0  0
    7.6445   13.4745   23.9538 N   0  0  0  0  0  0  0  0  0  0  0  0
    7.8393   14.6745   24.5361 C   0  0  0  0  0  0  0  0  0  0  0  0
    6.8439   15.4324   25.0532 N   0  0  0  0  0  0  0  0  0  0  0  0
    5.2855   13.6913   24.4833 C   0  0  0  0  0  0  0  0  0  0  0  0
    5.5767   14.9628   25.0926 C   0  0  0  0  0  0  0  0  0  0  0  0
    4.5675   15.6463   25.6327 N   0  0  0  0  0  0  0  0  0  0  0  0
    4.1969   12.9573   24.2981 N   0  0  0  0  0  0  0  0  0  0  0  0
    4.6071   11.8045   23.7315 C   0  0  0  0  0  0  0  0  0  0  0  0
    3.6607   15.2631   25.6382 H   0  0  0  0  0  0  0  0  0  0  0  0
    4.7291   16.5342   26.0261 H   0  0  0  0  0  0  0  0  0  0  0  0
    6.6842   10.7600   22.8236 C   0  0  0  0  0  0  0  0  0  0  0  0
    7.4663    9.9926   23.8875 C   0  0  0  0  0  0  0  0  0  0  0  0
    7.8231    7.5639   24.4784 C   0  0  0  0  0  0  0  0  0  0  0  0
    7.9792    8.7889   23.5644 C   0  0  0  0  0  0  0  0  0  0  0  0
    3.7013   10.6690   23.3285 C   0  0  0  0  0  0  0  0  0  0  0  0
    1.9407   10.1802   25.0597 C   0  0  0  0  0  0  0  0  0  0  0  0
    2.3144   10.8737   23.8962 C   0  0  0  0  0  0  0  0  0  0  0  0
    1.4671   11.7769   23.2858 C   0  0  0  0  0  0  0  0  0  0  0  0
    0.6755   10.3879   25.5892 C   0  0  0  0  0  0  0  0  0  0  0  0
   -0.1790   11.2798   24.9728 C   0  0  0  0  0  0  0  0  0  0  0  0
    0.2301   11.9872   23.8497 C   0  0  0  0  0  0  0  0  0  0  0  0
   -0.6098   12.8616   23.2153 O   0  0  0  0  0  0  0  0  0  0  0  0
   -1.8328   12.4584   22.5900 C   0  0  0  0  0  0  0  0  0  0  0  0
 17 19  1  0  0  0
 17 10  1  0  0  0
 18 19  2  0  0  0
 18 21  1  0  0  0
 19 20  1  0  0  0
  9 10  2  0  0  0
  9  6  1  0  0  0
 15 16  1  0  0  0
 10  1  1  0  0  0
 21 22  2  0  0  0
 16 14  1  0  0  0
  8  7  1  0  0  0
 20 23  2  0  0  0
 22 23  1  0  0  0
 23 24  1  0  0  0
  6  7  1  0  0  0
  6  2  2  0  0  0
  7  5  2  0  0  0
  1  2  1  0  0  0
  1 13  1  0  0  0
 24 25  1  0  0  0
 14 13  1  0  0  0
  2  3  1  0  0  0
  5  4  1  0  0  0
  3  4  2  0  0  0
  8 11  1  0  0  0
  8 12  1  0  0  0
M  END
> <minimizedAffinity>
-9.39107

$$$$



 25 27  0  0  0  0  0  0  0  0999 V2000
    3.8129   12.5320   24.2057 N   0  0  0  0  0  0  0  0  0  0  0  0
    4.2647   13.6849   24.6541 C   0  0  0  0  0  0  0  0  0  0  0  0
    3.7027   14.7283   25.2710 N   0  0  0  0  0  0  0  0  0  0  0  0
    4.4623   15.7980   25.5807 C   0  0  0  0  0  0  0  0  0  0  0  0
    5.7997   15.8569   25.3798 N   0  0  0  0  0  0  0  0  0  0  0  0
    5.7016   13.6635   24.3979 C   0  0  0  0  0  0  0  0  0  0  0  0
    6.4423   14.8457   24.7533 C   0  0  0  0  0  0  0  0  0  0  0  0
    7.7485   14.8721   24.4874 N   0  0  0  0  0  0  0  0  0  0  0  0
    5.9906   12.4992   23.8329 N   0  0  0  0  0  0  0  0  0  0  0  0
    4.8206   11.8440   23.6915 C   0  0  0  0  0  0  0  0  0  0  0  0
    8.1729   14.1114   24.0287 H   0  0  0  0  0  0  0  0  0  0  0  0
    8.2885   15.6524   24.7497 H   0  0  0  0  0  0  0  0  0  0  0  0
    2.4117   12.0919   24.2960 C   0  0  0  0  0  0  0  0  0  0  0  0
    1.5434   13.1235   23.5790 C   0  0  0  0  0  0  0  0  0  0  0  0
   -0.8394   12.3517   23.2597 C   0  0  0  0  0  0  0  0  0  0  0  0
    0.5728   12.6840   22.7537 C   0  0  0  0  0  0  0  0  0  0  0  0
    4.6677   10.4646   23.1030 C   0  0  0  0  0  0  0  0  0  0  0  0
    6.9929   10.0860   22.2165 C   0  0  0  0  0  0  0  0  0  0  0  0
    5.9890    9.7292   23.1327 C   0  0  0  0  0  0  0  0  0  0  0  0
    6.1949    8.7597   24.0940 C   0  0  0  0  0  0  0  0  0  0  0  0
    8.2109    9.4237   22.2620 C   0  0  0  0  0  0  0  0  0  0  0  0
    8.4145    8.4441   23.2129 C   0  0  0  0  0  0  0  0  0  0  0  0
    7.4227    8.1408   24.1368 C   0  0  0  0  0  0  0  0  0  0  0  0
    7.6004    7.1603   25.0746 O   0  0  0  0  0  0  0  0  0  0  0  0
    6.5973    6.1895   25.3920 C   0  0  0  0  0  0  0  0  0  0  0  0
 17 19  1  0  0  0
 17 10  1  0  0  0
 18 19  2  0  0  0
 18 21  1  0  0  0
 19 20  1  0  0  0
  9 10  2  0  0  0
  9  6  1  0  0  0
 15 16  1  0  0  0
 10  1  1  0  0  0
 21 22  2  0  0  0
 16 14  1  0  0  0
  8  7  1  0  0  0
 20 23  2  0  0  0
 22 23  1  0  0  0
 23 24  1  0  0  0
  6  7  1  0  0  0
  6  2  2  0  0  0
  7  5  2  0  0  0
  1  2  1  0  0  0
  1 13  1  0  0  0
 24 25  1  0  0  0
 14 13  1  0  0  0
  2  3  1  0  0  0
  5  4  1  0  0  0
  3  4  2  0  0  0
  8 11  1  0  0  0
  8 12  1  0  0  0
M  END
> <minimizedAffinity>
-9.17724

$$$$
