
 OpenBabel07192215303D

 24 26  0  0  0  0  0  0  0  0999 V2000
    6.5002   10.6040   21.6898 N   0  0  0  0  0  0  0  0  0  0  0  0
    5.7864    9.5460   21.4677 C   0  0  0  0  0  0  0  0  0  0  0  0
    5.3601    9.1037   20.3056 N   0  0  0  0  0  0  0  0  0  0  0  0
    4.6216    8.0164   20.3654 C   0  0  0  0  0  0  0  0  0  0  0  0
    4.2572    7.3452   21.4511 N   0  0  0  0  0  0  0  0  0  0  0  0
    5.4912    8.9333   22.6307 C   0  0  0  0  0  0  0  0  0  0  0  0
    4.6695    7.8212   22.6118 C   0  0  0  0  0  0  0  0  0  0  0  0
    4.2806    7.1065   23.7815 N   0  0  0  0  0  0  0  0  0  0  0  0
    6.0246    9.6322   23.6302 N   0  0  0  0  0  0  0  0  0  0  0  0
    6.6348   10.6770   23.0219 C   0  0  0  0  0  0  0  0  0  0  0  0
    4.1224    7.4390   18.9504 F   0  0  0  0  0  0  0  0  0  0  0  0
    4.5643    7.4237   24.6693 H   0  0  0  0  0  0  0  0  0  0  0  0
    3.7282    6.2955   23.7019 H   0  0  0  0  0  0  0  0  0  0  0  0
    7.4443   11.7710   23.6441 C   0  0  0  0  0  0  0  0  0  0  0  0
    7.2201   14.0764   24.6125 C   0  0  0  0  0  0  0  0  0  0  0  0
    6.6045   12.9317   24.1328 C   0  0  0  0  0  0  0  0  0  0  0  0
    5.2329   12.8352   24.1141 C   0  0  0  0  0  0  0  0  0  0  0  0
    6.5069   15.1766   25.0495 C   0  0  0  0  0  0  0  0  0  0  0  0
    5.1189   15.1057   25.0191 C   0  0  0  0  0  0  0  0  0  0  0  0
    4.4972   13.9377   24.5473 C   0  0  0  0  0  0  0  0  0  0  0  0
    9.2858   14.7838   25.7190 C   0  0  0  0  0  0  0  0  0  0  0  0
    8.6116   14.1097   24.6358 O   0  0  0  0  0  0  0  0  0  0  0  0
    3.0782   13.8011   24.5235 O   0  0  0  0  0  0  0  0  0  0  0  0
    2.4285   12.6166   24.0442 C   0  0  0  0  0  0  0  0  0  0  0  0
  1  2  2  0  0  0  0
  2  3  1  0  0  0  0
  3  4  2  0  0  0  0
  4 11  1  0  0  0  0
  5  4  1  0  0  0  0
  6  7  1  0  0  0  0
  6  2  1  0  0  0  0
  7  5  2  0  0  0  0
  8  7  1  0  0  0  0
  8 12  1  0  0  0  0
  8 13  1  0  0  0  0
  9 10  1  0  0  0  0
  9  6  2  0  0  0  0
 10  1  2  0  0  0  0
 14 16  1  0  0  0  0
 14 10  1  0  0  0  0
 15 16  2  0  0  0  0
 15 18  1  0  0  0  0
 16 17  1  0  0  0  0
 17 20  2  0  0  0  0
 18 19  2  0  0  0  0
 19 20  1  0  0  0  0
 20 23  1  0  0  0  0
 22 21  1  0  0  0  0
 22 15  1  0  0  0  0
 23 24  1  0  0  0  0
M  END
>  <minimizedAffinity>
-8.61170

$$$$
