
 OpenBabel07192215303D

 27 29  0  0  0  0  0  0  0  0999 V2000
    4.6042   11.6686   23.6285 C   0  0  0  0  0  0  0  0  0  0  0  0
    4.1198   12.7749   24.2158 N   0  0  0  0  0  0  0  0  0  0  0  0
    5.1946   13.5557   24.4401 C   0  0  0  0  0  0  0  0  0  0  0  0
    5.3334   14.7865   25.0636 C   0  0  0  0  0  0  0  0  0  0  0  0
    4.2422   15.5104   25.6332 N   0  0  0  0  0  0  0  0  0  0  0  0
    6.3115   12.9089   23.9649 C   0  0  0  0  0  0  0  0  0  0  0  0
    7.5373   13.4365   23.9967 N   0  0  0  0  0  0  0  0  0  0  0  0
    7.6716   14.6368   24.6129 C   0  0  0  0  0  0  0  0  0  0  0  0
    6.5500   15.3837   25.1348 N   0  0  0  0  0  0  0  0  0  0  0  0
    5.9092   11.7689   23.4745 N   0  0  0  0  0  0  0  0  0  0  0  0
    3.3346   15.1295   25.6125 H   0  0  0  0  0  0  0  0  0  0  0  0
    4.3975   16.3903   26.0465 H   0  0  0  0  0  0  0  0  0  0  0  0
    3.8083   10.4710   23.1282 C   0  0  0  0  0  0  0  0  0  0  0  0
    3.8307    7.0075   24.8973 C   0  0  0  0  0  0  0  0  0  0  0  0
    4.0743    8.0314   23.9534 C   0  0  0  0  0  0  0  0  0  0  0  0
    3.0853    7.3177   26.0550 C   0  0  0  0  0  0  0  0  0  0  0  0
    2.6349    8.6395   26.2062 C   0  0  0  0  0  0  0  0  0  0  0  0
    2.8420    9.6230   25.2513 C   0  0  0  0  0  0  0  0  0  0  0  0
    3.5787    9.3425   24.1190 C   0  0  0  0  0  0  0  0  0  0  0  0
    4.2536    6.7785   21.8180 C   0  0  0  0  0  0  0  0  0  0  0  0
    4.8068    7.7080   22.8057 O   0  0  0  0  0  0  0  0  0  0  0  0
    1.8673    9.0687   27.3225 O   0  0  0  0  0  0  0  0  0  0  0  0
    0.5970    8.5273   27.6487 C   0  0  0  0  0  0  0  0  0  0  0  0
    6.6895   10.6931   22.8245 C   0  0  0  0  0  0  0  0  0  0  0  0
    7.6842    9.9672   23.7423 C   0  0  0  0  0  0  0  0  0  0  0  0
    7.9966    8.4775   23.6012 C   0  0  0  0  0  0  0  0  0  0  0  0
    7.7716    7.4154   24.7184 C   0  0  0  0  0  0  0  0  0  0  0  0
  1 10  1  0  0  0  0
  2  1  2  0  0  0  0
  2  3  1  0  0  0  0
  3  4  2  0  0  0  0
  3  6  1  0  0  0  0
  4  9  1  0  0  0  0
  5  4  1  0  0  0  0
  5 11  1  0  0  0  0
  5 12  1  0  0  0  0
  6  7  2  0  0  0  0
  7  8  1  0  0  0  0
  9  8  2  0  0  0  0
 10  6  1  0  0  0  0
 10 24  1  0  0  0  0
 13 19  1  0  0  0  0
 13  1  1  0  0  0  0
 14 16  1  0  0  0  0
 15 19  1  0  0  0  0
 15 14  2  0  0  0  0
 16 17  2  0  0  0  0
 17 22  1  0  0  0  0
 18 17  1  0  0  0  0
 19 18  2  0  0  0  0
 21 20  1  0  0  0  0
 21 15  1  0  0  0  0
 22 23  1  0  0  0  0
 25 24  1  0  0  0  0
 26 25  1  0  0  0  0
 27 26  1  0  0  0  0
M  END
>  <minimizedAffinity>
-9.28187

$$$$
