
 OpenBabel07192215303D

 26 29  0  0  0  0  0  0  0  0999 V2000
    6.0958   11.8446   23.4715 N   0  0  0  0  0  0  0  0  0  0  0  0
    6.5319   13.0383   23.9563 C   0  0  0  0  0  0  0  0  0  0  0  0
    7.7772   13.5735   23.9360 N   0  0  0  0  0  0  0  0  0  0  0  0
    7.9350   14.7959   24.4899 C   0  0  0  0  0  0  0  0  0  0  0  0
    6.8953   15.4571   25.0517 N   0  0  0  0  0  0  0  0  0  0  0  0
    5.4582   13.7136   24.5157 C   0  0  0  0  0  0  0  0  0  0  0  0
    5.6394   14.9470   25.0894 C   0  0  0  0  0  0  0  0  0  0  0  0
    4.6222   15.6504   25.6819 N   0  0  0  0  0  0  0  0  0  0  0  0
    4.3957   12.9071   24.3382 N   0  0  0  0  0  0  0  0  0  0  0  0
    4.7609   11.7680   23.7141 C   0  0  0  0  0  0  0  0  0  0  0  0
    3.7127   15.2744   25.7059 H   0  0  0  0  0  0  0  0  0  0  0  0
    4.8015   16.5313   26.0832 H   0  0  0  0  0  0  0  0  0  0  0  0
    6.9117   10.8341   22.7880 C   0  0  0  0  0  0  0  0  0  0  0  0
    7.6860   10.0557   23.8688 C   0  0  0  0  0  0  0  0  0  0  0  0
    7.7666    7.5752   24.5544 C   0  0  0  0  0  0  0  0  0  0  0  0
    8.0453    8.6159   23.4701 C   0  0  0  0  0  0  0  0  0  0  0  0
    3.8911   10.5972   23.3169 C   0  0  0  0  0  0  0  0  0  0  0  0
    2.4351   10.9948   23.5049 C   0  0  0  0  0  0  0  0  0  0  0  0
    1.5645   10.2247   24.3101 C   0  0  0  0  0  0  0  0  0  0  0  0
    0.2447   10.6513   24.4055 C   0  0  0  0  0  0  0  0  0  0  0  0
    1.9682   12.1372   22.8352 C   0  0  0  0  0  0  0  0  0  0  0  0
   -0.8107   10.1018   25.1146 O   0  0  0  0  0  0  0  0  0  0  0  0
    0.6317   12.5348   22.9551 C   0  0  0  0  0  0  0  0  0  0  0  0
   -0.2041   11.7615   23.7450 C   0  0  0  0  0  0  0  0  0  0  0  0
   -1.5577   11.9449   24.0266 O   0  0  0  0  0  0  0  0  0  0  0  0
   -1.9880   10.8963   24.9047 C   0  0  0  0  0  0  0  0  0  0  0  0
  1  2  1  0  0  0  0
  1 13  1  0  0  0  0
  2  3  1  0  0  0  0
  3  4  2  0  0  0  0
  5  4  1  0  0  0  0
  6  7  1  0  0  0  0
  6  2  2  0  0  0  0
  7  5  2  0  0  0  0
  8  7  1  0  0  0  0
  8 11  1  0  0  0  0
  8 12  1  0  0  0  0
  9 10  2  0  0  0  0
  9  6  1  0  0  0  0
 10  1  1  0  0  0  0
 14 13  1  0  0  0  0
 15 16  1  0  0  0  0
 16 14  1  0  0  0  0
 17 18  1  0  0  0  0
 17 10  1  0  0  0  0
 18 19  1  0  0  0  0
 19 20  2  0  0  0  0
 20 22  1  0  0  0  0
 21 18  2  0  0  0  0
 21 23  1  0  0  0  0
 22 26  1  0  0  0  0
 23 24  2  0  0  0  0
 24 20  1  0  0  0  0
 24 25  1  0  0  0  0
 25 26  1  0  0  0  0
M  END
>  <minimizedAffinity>
-9.86898

$$$$
