


 32 34  0  0  0  0  0  0  0  0999 V2000
    4.7264   11.8146   23.7208 C   0  0  0  0  0  0  0  0  0  0  0  0
    4.3087   12.8916   24.3207 N   0  0  0  0  0  0  0  0  0  0  0  0
    5.5024   13.6969   24.5063 C   0  0  0  0  0  0  0  0  0  0  0  0
    5.6721   14.9198   25.0510 C   0  0  0  0  0  0  0  0  0  0  0  0
    4.6428   15.7267   25.6675 N   0  0  0  0  0  0  0  0  0  0  0  0
    6.5862   13.0946   23.9713 C   0  0  0  0  0  0  0  0  0  0  0  0
    7.7745   13.6145   23.9275 N   0  0  0  0  0  0  0  0  0  0  0  0
    7.9145   14.8047   24.4725 C   0  0  0  0  0  0  0  0  0  0  0  0
    6.9081   15.3977   25.0195 N   0  0  0  0  0  0  0  0  0  0  0  0
    6.1534   11.8630   23.4061 N   0  0  0  0  0  0  0  0  0  0  0  0
    9.1110   15.4352   24.4878 F   0  0  0  0  0  0  0  0  0  0  0  0
    3.7158   15.3973   25.7053 H   0  0  0  0  0  0  0  0  0  0  0  0
    4.8689   16.6054   26.0494 H   0  0  0  0  0  0  0  0  0  0  0  0
    3.8810   10.6385   23.3230 C   0  0  0  0  0  0  0  0  0  0  0  0
    1.3758   12.5717   22.5931 Cl  0  0  0  0  0  0  0  0  0  0  0  0
    1.4363   11.2932   23.8148 C   0  0  0  0  0  0  0  0  0  0  0  0
    0.3499   11.0338   24.6256 C   0  0  0  0  0  0  0  0  0  0  0  0
    0.3589   10.0824   25.5912 C   0  0  0  0  0  0  0  0  0  0  0  0
    1.4251    9.3285   25.8523 C   0  0  0  0  0  0  0  0  0  0  0  0
    2.5666    9.5278   25.0914 C   0  0  0  0  0  0  0  0  0  0  0  0
    2.5852   10.4988   24.0893 C   0  0  0  0  0  0  0  0  0  0  0  0
   -0.8952   11.6536   24.6214 O   0  0  0  0  0  0  0  0  0  0  0  0
   -1.7750   11.6988   23.5472 C   0  0  0  0  0  0  0  0  0  0  0  0
   -0.8230    9.9042   26.3114 O   0  0  0  0  0  0  0  0  0  0  0  0
   -0.9087   10.4284   27.6303 C   0  0  0  0  0  0  0  0  0  0  0  0
    1.2511    8.3346   26.8382 O   0  0  0  0  0  0  0  0  0  0  0  0
    2.3868    8.1005   27.6919 C   0  0  0  0  0  0  0  0  0  0  0  0
    6.9982   10.8270   22.7853 C   0  0  0  0  0  0  0  0  0  0  0  0
    7.8490   10.1338   23.8337 C   0  0  0  0  0  0  0  0  0  0  0  0
    7.8697    8.6295   23.8506 C   0  0  0  0  0  0  0  0  0  0  0  0
    6.5622    7.8381   24.0085 C   0  0  0  0  0  0  0  0  0  0  0  0
    5.5737    7.2207   24.1884 C   0  0  0  0  0  0  0  0  0  0  0  0
 14 21  1  0  0  0
 14  1  1  0  0  0
 27 26  1  0  0  0
 32 31  3  0  0  0
 20 21  1  0  0  0
 20 19  2  0  0  0
 21 16  2  0  0  0
  2  1  2  0  0  0
  2  3  1  0  0  0
 31 30  1  0  0  0
  1 10  1  0  0  0
 19 26  1  0  0  0
 19 18  1  0  0  0
  5  4  1  0  0  0
 16 15  1  0  0  0
 16 17  1  0  0  0
 30 29  1  0  0  0
 25 24  1  0  0  0
 18 17  2  0  0  0
 18 24  1  0  0  0
 17 22  1  0  0  0
  3  4  1  0  0  0
  3  6  2  0  0  0
  4  9  2  0  0  0
 10  6  1  0  0  0
 10 28  1  0  0  0
 22 23  1  0  0  0
  6  7  1  0  0  0
 29 28  1  0  0  0
  9  8  1  0  0  0
  7  8  2  0  0  0
  8 11  1  0  0  0
  5 12  1  0  0  0
  5 13  1  0  0  0
M  END
> <minimizedAffinity>
-10.12012

$$$$



 32 34  0  0  0  0  0  0  0  0999 V2000
    4.7079   11.7808   23.6109 C   0  0  0  0  0  0  0  0  0  0  0  0
    4.2606   12.8430   24.2158 N   0  0  0  0  0  0  0  0  0  0  0  0
    5.4418   13.6482   24.4689 C   0  0  0  0  0  0  0  0  0  0  0  0
    5.5830   14.8595   25.0465 C   0  0  0  0  0  0  0  0  0  0  0  0
    4.5252   15.6492   25.6364 N   0  0  0  0  0  0  0  0  0  0  0  0
    6.5498   13.0615   23.9672 C   0  0  0  0  0  0  0  0  0  0  0  0
    7.7366   13.5864   23.9847 N   0  0  0  0  0  0  0  0  0  0  0  0
    7.8484   14.7648   24.5607 C   0  0  0  0  0  0  0  0  0  0  0  0
    6.8172   15.3422   25.0775 N   0  0  0  0  0  0  0  0  0  0  0  0
    6.1466   11.8410   23.3577 N   0  0  0  0  0  0  0  0  0  0  0  0
    9.0403   15.3991   24.6400 F   0  0  0  0  0  0  0  0  0  0  0  0
    3.5989   15.3158   25.6280 H   0  0  0  0  0  0  0  0  0  0  0  0
    4.7312   16.5202   26.0465 H   0  0  0  0  0  0  0  0  0  0  0  0
    3.8851   10.6106   23.1525 C   0  0  0  0  0  0  0  0  0  0  0  0
    3.6393    7.9801   25.0409 Cl  0  0  0  0  0  0  0  0  0  0  0  0
    2.4407    9.2606   24.8072 C   0  0  0  0  0  0  0  0  0  0  0  0
    1.2123    9.2063   25.4339 C   0  0  0  0  0  0  0  0  0  0  0  0
    0.2541   10.1503   25.2650 C   0  0  0  0  0  0  0  0  0  0  0  0
    0.4102   11.2024   24.4638 C   0  0  0  0  0  0  0  0  0  0  0  0
    1.6120   11.3325   23.7853 C   0  0  0  0  0  0  0  0  0  0  0  0
    2.6170   10.3770   23.9417 C   0  0  0  0  0  0  0  0  0  0  0  0
    0.7341    8.2368   26.3091 O   0  0  0  0  0  0  0  0  0  0  0  0
    0.3184    6.9592   25.9555 C   0  0  0  0  0  0  0  0  0  0  0  0
   -0.9270    9.9863   25.9899 O   0  0  0  0  0  0  0  0  0  0  0  0
   -1.0054   10.5220   27.3046 C   0  0  0  0  0  0  0  0  0  0  0  0
   -0.6511   12.1318   24.4525 O   0  0  0  0  0  0  0  0  0  0  0  0
   -1.4909   12.1019   23.2833 C   0  0  0  0  0  0  0  0  0  0  0  0
    7.0213   10.8216   22.7508 C   0  0  0  0  0  0  0  0  0  0  0  0
    7.7302   10.0186   23.8261 C   0  0  0  0  0  0  0  0  0  0  0  0
    8.0685    8.5822   23.5328 C   0  0  0  0  0  0  0  0  0  0  0  0
    7.4901    7.4563   24.4038 C   0  0  0  0  0  0  0  0  0  0  0  0
    6.9982    6.5894   25.0339 C   0  0  0  0  0  0  0  0  0  0  0  0
 14 21  1  0  0  0
 14  1  1  0  0  0
 27 26  1  0  0  0
 32 31  3  0  0  0
 20 21  1  0  0  0
 20 19  2  0  0  0
 21 16  2  0  0  0
  2  1  2  0  0  0
  2  3  1  0  0  0
 31 30  1  0  0  0
  1 10  1  0  0  0
 19 26  1  0  0  0
 19 18  1  0  0  0
  5  4  1  0  0  0
 16 15  1  0  0  0
 16 17  1  0  0  0
 30 29  1  0  0  0
 25 24  1  0  0  0
 18 17  2  0  0  0
 18 24  1  0  0  0
 17 22  1  0  0  0
  3  4  1  0  0  0
  3  6  2  0  0  0
  4  9  2  0  0  0
 10  6  1  0  0  0
 10 28  1  0  0  0
 22 23  1  0  0  0
  6  7  1  0  0  0
 29 28  1  0  0  0
  9  8  1  0  0  0
  7  8  2  0  0  0
  8 11  1  0  0  0
  5 12  1  0  0  0
  5 13  1  0  0  0
M  END
> <minimizedAffinity>
-9.66876

$$$$



 32 34  0  0  0  0  0  0  0  0999 V2000
    4.7816   11.9274   23.6973 C   0  0  0  0  0  0  0  0  0  0  0  0
    4.3809   13.0099   24.2988 N   0  0  0  0  0  0  0  0  0  0  0  0
    5.5912   13.7828   24.5122 C   0  0  0  0  0  0  0  0  0  0  0  0
    5.7823   14.9966   25.0700 C   0  0  0  0  0  0  0  0  0  0  0  0
    4.7631   15.8246   25.6752 N   0  0  0  0  0  0  0  0  0  0  0  0
    6.6686   13.1572   23.9912 C   0  0  0  0  0  0  0  0  0  0  0  0
    7.8705   13.6469   23.9726 N   0  0  0  0  0  0  0  0  0  0  0  0
    8.0311   14.8286   24.5300 C   0  0  0  0  0  0  0  0  0  0  0  0
    7.0305   15.4428   25.0642 N   0  0  0  0  0  0  0  0  0  0  0  0
    6.2148   11.9417   23.4081 N   0  0  0  0  0  0  0  0  0  0  0  0
    9.2427   15.4282   24.5716 F   0  0  0  0  0  0  0  0  0  0  0  0
    3.8275   15.5188   25.6939 H   0  0  0  0  0  0  0  0  0  0  0  0
    5.0048   16.6942   26.0684 H   0  0  0  0  0  0  0  0  0  0  0  0
    3.9137   10.7765   23.2748 C   0  0  0  0  0  0  0  0  0  0  0  0
    0.9792   12.1628   23.3890 Cl  0  0  0  0  0  0  0  0  0  0  0  0
    1.6023   10.8616   24.4136 C   0  0  0  0  0  0  0  0  0  0  0  0
    0.8359   10.3302   25.4310 C   0  0  0  0  0  0  0  0  0  0  0  0
    1.2801    9.3511   26.2566 C   0  0  0  0  0  0  0  0  0  0  0  0
    2.5028    8.8310   26.1678 C   0  0  0  0  0  0  0  0  0  0  0  0
    3.3459    9.3130   25.1786 C   0  0  0  0  0  0  0  0  0  0  0  0
    2.9145   10.3191   24.3131 C   0  0  0  0  0  0  0  0  0  0  0  0
   -0.4632   10.6668   25.7965 O   0  0  0  0  0  0  0  0  0  0  0  0
   -1.5601   10.7094   24.9450 C   0  0  0  0  0  0  0  0  0  0  0  0
    0.3841    8.8832   27.2187 O   0  0  0  0  0  0  0  0  0  0  0  0
   -0.1800    7.5879   27.0590 C   0  0  0  0  0  0  0  0  0  0  0  0
    2.7875    7.7700   27.0529 O   0  0  0  0  0  0  0  0  0  0  0  0
    3.3790    6.6022   26.4532 C   0  0  0  0  0  0  0  0  0  0  0  0
    7.0438   10.8893   22.7934 C   0  0  0  0  0  0  0  0  0  0  0  0
    7.7310   10.0595   23.8624 C   0  0  0  0  0  0  0  0  0  0  0  0
    8.0554    8.6243   23.5482 C   0  0  0  0  0  0  0  0  0  0  0  0
    7.4277    7.4896   24.3723 C   0  0  0  0  0  0  0  0  0  0  0  0
    6.9355    6.5885   24.9522 C   0  0  0  0  0  0  0  0  0  0  0  0
 14 21  1  0  0  0
 14  1  1  0  0  0
 27 26  1  0  0  0
 32 31  3  0  0  0
 20 21  1  0  0  0
 20 19  2  0  0  0
 21 16  2  0  0  0
  2  1  2  0  0  0
  2  3  1  0  0  0
 31 30  1  0  0  0
  1 10  1  0  0  0
 19 26  1  0  0  0
 19 18  1  0  0  0
  5  4  1  0  0  0
 16 15  1  0  0  0
 16 17  1  0  0  0
 30 29  1  0  0  0
 25 24  1  0  0  0
 18 17  2  0  0  0
 18 24  1  0  0  0
 17 22  1  0  0  0
  3  4  1  0  0  0
  3  6  2  0  0  0
  4  9  2  0  0  0
 10  6  1  0  0  0
 10 28  1  0  0  0
 22 23  1  0  0  0
  6  7  1  0  0  0
 29 28  1  0  0  0
  9  8  1  0  0  0
  7  8  2  0  0  0
  8 11  1  0  0  0
  5 12  1  0  0  0
  5 13  1  0  0  0
M  END
> <minimizedAffinity>
-9.51397

$$$$
