BDB33240
 OpenBabel07192215303D

 33 35  0  0  0  0  0  0  0  0999 V2000
    1.1674   11.9167   23.5059 C   0  0  0  0  0  0  0  0  0  0  0  0
    0.6137   12.4620   22.4188 N   0  0  0  0  0  0  0  0  0  0  0  0
   -0.7098   12.4838   22.2004 C   0  0  0  0  0  0  0  0  0  0  0  0
   -1.5732   11.9562   23.0643 N   0  0  0  0  0  0  0  0  0  0  0  0
    0.2584   11.3633   24.4116 C   0  0  0  0  0  0  0  0  0  0  0  0
    0.5299   10.7377   25.6102 C   0  0  0  0  0  0  0  0  0  0  0  0
   -1.0996   11.4002   24.1608 C   0  0  0  0  0  0  0  0  0  0  0  0
   -1.9997   10.6752   25.3862 S   0  0  0  0  0  0  0  0  0  0  0  0
   -0.6134   10.3043   26.2613 C   0  0  0  0  0  0  0  0  0  0  0  0
   -1.2403   13.0878   21.0074 N   0  0  0  0  0  0  0  0  0  0  0  0
   -0.6110   13.5074   20.3127 H   0  0  0  0  0  0  0  0  0  0  0  0
   -2.2637   13.0989   20.8494 H   0  0  0  0  0  0  0  0  0  0  0  0
    2.7587   11.9614   23.6368 C   0  0  0  0  0  0  0  0  0  0  0  0
    5.5751   11.7158   23.7402 C   0  0  0  0  0  0  0  0  0  0  0  0
    4.9578   12.8735   24.1532 C   0  0  0  0  0  0  0  0  0  0  0  0
    3.5800   13.0127   24.1100 C   0  0  0  0  0  0  0  0  0  0  0  0
    3.4134   10.7946   23.2231 C   0  0  0  0  0  0  0  0  0  0  0  0
    4.8026   10.6724   23.2737 C   0  0  0  0  0  0  0  0  0  0  0  0
    7.2876   11.5797   23.8084 Cl  0  0  0  0  0  0  0  0  0  0  0  0
    3.1068   14.5389   24.6787 Cl  0  0  0  0  0  0  0  0  0  0  0  0
    5.4745    9.5354   22.8731 O   0  0  0  0  0  0  0  0  0  0  0  0
    5.8697    9.5598   21.5246 C   0  0  0  0  0  0  0  0  0  0  0  0
    4.9035    8.6833   20.7796 C   0  0  0  0  0  0  0  0  0  0  0  0
    4.4518    7.4788   21.3566 N   0  0  0  0  0  0  0  0  0  0  0  0
    4.5036    9.0176   19.6603 O   0  0  0  0  0  0  0  0  0  0  0  0
    4.7695    7.2012   22.2601 H   0  0  0  0  0  0  0  0  0  0  0  0
    3.8125    6.9013   20.8610 H   0  0  0  0  0  0  0  0  0  0  0  0
   -0.5462    9.6128   27.5546 C   0  0  0  0  0  0  0  0  0  0  0  0
    0.5372    8.7388   27.8016 N   0  0  0  0  0  0  0  0  0  0  0  0
   -1.4171    9.7885   28.4122 O   0  0  0  0  0  0  0  0  0  0  0  0
    1.2267    8.6050   27.1118 H   0  0  0  0  0  0  0  0  0  0  0  0
    0.6576    8.0378   29.0393 C   0  0  0  0  0  0  0  0  0  0  0  0
    2.1591    7.8493   29.3522 C   0  0  0  0  0  0  0  0  0  0  0  0
  1  2  1  0  0  0  0
  1  5  2  0  0  0  0
  1 13  1  0  0  0  0
  2  3  2  0  0  0  0
  3  4  1  0  0  0  0
  3 10  1  0  0  0  0
  4  7  2  0  0  0  0
  5  7  1  0  0  0  0
  6  5  1  0  0  0  0
  6  9  2  0  0  0  0
  7  8  1  0  0  0  0
  8  9  1  0  0  0  0
  9 28  1  0  0  0  0
 10 11  1  0  0  0  0
 10 12  1  0  0  0  0
 13 17  1  0  0  0  0
 14 15  2  0  0  0  0
 14 18  1  0  0  0  0
 14 19  1  0  0  0  0
 15 16  1  0  0  0  0
 16 13  2  0  0  0  0
 16 20  1  0  0  0  0
 17 18  2  0  0  0  0
 18 21  1  0  0  0  0
 21 22  1  0  0  0  0
 22 23  1  0  0  0  0
 23 24  1  0  0  0  0
 23 25  2  0  0  0  0
 24 26  1  0  0  0  0
 24 27  1  0  0  0  0
 28 29  1  0  0  0  0
 28 30  2  0  0  0  0
 29 32  1  0  0  0  0
 29 31  1  0  0  0  0
 32 33  1  0  0  0  0
M  END
>  <minimizedAffinity>
-9.43888

$$$$
