BDB20739


 30 33  0  0  0  0  0  0  0  0999 V2000
    4.4239   13.1918   24.4226 C   0  0  0  0  0  0  0  0  0  0  0  0
    3.6119   14.2783   24.7478 C   0  0  0  0  0  0  0  0  0  0  0  0
    4.1690   15.5269   25.0491 C   0  0  0  0  0  0  0  0  0  0  0  0
    5.5489   15.7335   25.0363 C   0  0  0  0  0  0  0  0  0  0  0  0
    5.7866   13.4320   24.4194 C   0  0  0  0  0  0  0  0  0  0  0  0
    6.8661   12.6257   24.1549 C   0  0  0  0  0  0  0  0  0  0  0  0
    6.3376   14.6431   24.7111 C   0  0  0  0  0  0  0  0  0  0  0  0
    7.6281   14.5503   24.6239 O   0  0  0  0  0  0  0  0  0  0  0  0
    7.9518   13.3881   24.3025 N   0  0  0  0  0  0  0  0  0  0  0  0
    6.8350   11.2109   23.7843 C   0  0  0  0  0  0  0  0  0  0  0  0
    5.6179    9.2833   23.0136 C   0  0  0  0  0  0  0  0  0  0  0  0
    5.6455   10.6273   23.3652 C   0  0  0  0  0  0  0  0  0  0  0  0
    7.9962   10.4504   23.8517 C   0  0  0  0  0  0  0  0  0  0  0  0
    7.9686    9.1060   23.5000 C   0  0  0  0  0  0  0  0  0  0  0  0
    6.7788    8.5225   23.0808 C   0  0  0  0  0  0  0  0  0  0  0  0
    9.1842   11.0346   24.2707 O   0  0  0  0  0  0  0  0  0  0  0  0
    6.7491    7.1796   22.7290 O   0  0  0  0  0  0  0  0  0  0  0  0
    4.1480    8.5629   22.4959 Cl  0  0  0  0  0  0  0  0  0  0  0  0
    8.9826   11.4116   25.1636 H   0  0  0  0  0  0  0  0  0  0  0  0
    6.3966    7.1653   21.8039 H   0  0  0  0  0  0  0  0  0  0  0  0
    2.1872   14.1154   24.7743 N   0  0  0  0  0  0  0  0  0  0  0  0
    1.5625   14.5368   25.4765 H   0  0  0  0  0  0  0  0  0  0  0  0
    1.7401   13.2632   23.6601 C   0  0  0  0  0  0  0  0  0  0  0  0
    0.4627   12.5077   24.0814 C   0  0  0  0  0  0  0  0  0  0  0  0
   -0.4429   10.8200   25.5429 C   0  0  0  0  0  0  0  0  0  0  0  0
   -0.0816    9.7449   26.5859 C   0  0  0  0  0  0  0  0  0  0  0  0
    2.0051    9.4023   25.5566 C   0  0  0  0  0  0  0  0  0  0  0  0
    1.6807   10.4705   24.4949 C   0  0  0  0  0  0  0  0  0  0  0  0
    0.7869   11.4755   25.0824 N   0  0  0  0  0  0  0  0  0  0  0  0
    0.7919    8.7731   25.9935 O   0  0  0  0  0  0  0  0  0  0  0  0
  1  2  1  0  0  0
  1  5  2  0  0  0
  2  3  2  0  0  0
  2 21  1  0  0  0
  3  4  1  0  0  0
  4  7  2  0  0  0
  5  7  1  0  0  0
  6  5  1  0  0  0
  6  9  2  0  0  0
  6 10  1  0  0  0
  7  8  1  0  0  0
  8  9  1  0  0  0
 10 13  1  0  0  0
 11 12  1  0  0  0
 11 15  2  0  0  0
 11 18  1  0  0  0
 12 10  2  0  0  0
 13 14  2  0  0  0
 13 16  1  0  0  0
 14 15  1  0  0  0
 15 17  1  0  0  0
 21 23  1  0  0  0
 21 22  1  0  0  0
 23 24  1  0  0  0
 24 29  1  0  0  0
 25 29  1  0  0  0
 25 26  1  0  0  0
 26 30  1  0  0  0
 27 28  1  0  0  0
 28 29  1  0  0  0
 30 27  1  0  0  0
 16 19  1  0  0  0
 17 20  1  0  0  0
M  END
> <minimizedAffinity>
-9.64749

$$$$
BDB20739


 30 33  0  0  0  0  0  0  0  0999 V2000
    4.7824   10.1343   23.6232 C   0  0  0  0  0  0  0  0  0  0  0  0
    4.4404    8.8238   23.2899 C   0  0  0  0  0  0  0  0  0  0  0  0
    5.4213    7.8992   22.9115 C   0  0  0  0  0  0  0  0  0  0  0  0
    6.7709    8.2487   22.8530 C   0  0  0  0  0  0  0  0  0  0  0  0
    6.1288   10.4464   23.5544 C   0  0  0  0  0  0  0  0  0  0  0  0
    6.8223   11.6050   23.8032 C   0  0  0  0  0  0  0  0  0  0  0  0
    7.0900    9.5537   23.1875 C   0  0  0  0  0  0  0  0  0  0  0  0
    8.2451   10.1421   23.2199 O   0  0  0  0  0  0  0  0  0  0  0  0
    8.1087   11.3314   23.5747 N   0  0  0  0  0  0  0  0  0  0  0  0
    6.2641   12.8868   24.2339 C   0  0  0  0  0  0  0  0  0  0  0  0
    4.3597   14.2972   24.6512 C   0  0  0  0  0  0  0  0  0  0  0  0
    4.8879   13.0790   24.2418 C   0  0  0  0  0  0  0  0  0  0  0  0
    7.1115   13.9126   24.6352 C   0  0  0  0  0  0  0  0  0  0  0  0
    6.5830   15.1312   25.0446 C   0  0  0  0  0  0  0  0  0  0  0  0
    5.2065   15.3233   25.0525 C   0  0  0  0  0  0  0  0  0  0  0  0
    8.4865   13.7194   24.6267 O   0  0  0  0  0  0  0  0  0  0  0  0
    4.6766   16.5399   25.4613 O   0  0  0  0  0  0  0  0  0  0  0  0
    2.6592   14.5341   24.6609 Cl  0  0  0  0  0  0  0  0  0  0  0  0
    8.7019   13.4562   23.6970 H   0  0  0  0  0  0  0  0  0  0  0  0
    4.0569   16.3138   26.1996 H   0  0  0  0  0  0  0  0  0  0  0  0
    3.0658    8.4168   23.3349 N   0  0  0  0  0  0  0  0  0  0  0  0
    2.6100    7.8146   22.6346 H   0  0  0  0  0  0  0  0  0  0  0  0
    2.3956    8.9780   24.5195 C   0  0  0  0  0  0  0  0  0  0  0  0
    1.1577    8.1205   24.8548 C   0  0  0  0  0  0  0  0  0  0  0  0
    0.2946    9.2808   26.7818 C   0  0  0  0  0  0  0  0  0  0  0  0
   -0.8523   10.1734   27.2935 C   0  0  0  0  0  0  0  0  0  0  0  0
   -1.1296   11.1003   25.1500 C   0  0  0  0  0  0  0  0  0  0  0  0
    0.0128   10.2250   24.6003 C   0  0  0  0  0  0  0  0  0  0  0  0
    0.0689    8.9733   25.3646 N   0  0  0  0  0  0  0  0  0  0  0  0
   -0.8911   11.3904   26.5347 O   0  0  0  0  0  0  0  0  0  0  0  0
  1  2  1  0  0  0
  1  5  2  0  0  0
  2  3  2  0  0  0
  2 21  1  0  0  0
  3  4  1  0  0  0
  4  7  2  0  0  0
  5  7  1  0  0  0
  6  5  1  0  0  0
  6  9  2  0  0  0
  6 10  1  0  0  0
  7  8  1  0  0  0
  8  9  1  0  0  0
 10 13  1  0  0  0
 11 12  1  0  0  0
 11 15  2  0  0  0
 11 18  1  0  0  0
 12 10  2  0  0  0
 13 14  2  0  0  0
 13 16  1  0  0  0
 14 15  1  0  0  0
 15 17  1  0  0  0
 21 23  1  0  0  0
 21 22  1  0  0  0
 23 24  1  0  0  0
 24 29  1  0  0  0
 25 29  1  0  0  0
 25 26  1  0  0  0
 26 30  1  0  0  0
 27 28  1  0  0  0
 28 29  1  0  0  0
 30 27  1  0  0  0
 16 19  1  0  0  0
 17 20  1  0  0  0
M  END
> <minimizedAffinity>
-9.61861

$$$$
BDB20739


 30 33  0  0  0  0  0  0  0  0999 V2000
    5.8844   12.6659   24.1308 C   0  0  0  0  0  0  0  0  0  0  0  0
    7.2756   12.7623   24.1033 C   0  0  0  0  0  0  0  0  0  0  0  0
    7.9210   13.9497   24.4691 C   0  0  0  0  0  0  0  0  0  0  0  0
    7.2038   15.0765   24.8729 C   0  0  0  0  0  0  0  0  0  0  0  0
    5.2052   13.8014   24.5359 C   0  0  0  0  0  0  0  0  0  0  0  0
    3.8676   14.0744   24.6834 C   0  0  0  0  0  0  0  0  0  0  0  0
    5.8244   14.9607   24.8935 C   0  0  0  0  0  0  0  0  0  0  0  0
    4.9243   15.8347   25.2215 O   0  0  0  0  0  0  0  0  0  0  0  0
    3.7846   15.3379   25.1056 N   0  0  0  0  0  0  0  0  0  0  0  0
    2.7524   13.1624   24.4290 C   0  0  0  0  0  0  0  0  0  0  0  0
    1.8740   10.9255   24.3069 C   0  0  0  0  0  0  0  0  0  0  0  0
    2.9345   11.7900   24.5490 C   0  0  0  0  0  0  0  0  0  0  0  0
    1.5103   13.6697   24.0670 C   0  0  0  0  0  0  0  0  0  0  0  0
    0.4495   12.8048   23.8249 C   0  0  0  0  0  0  0  0  0  0  0  0
    0.6317   11.4322   23.9449 C   0  0  0  0  0  0  0  0  0  0  0  0
    1.3296   15.0412   23.9473 O   0  0  0  0  0  0  0  0  0  0  0  0
   -0.4267   10.5665   23.7034 O   0  0  0  0  0  0  0  0  0  0  0  0
    2.0995    9.2299   24.4553 Cl  0  0  0  0  0  0  0  0  0  0  0  0
    2.0107   15.3324   23.2905 H   0  0  0  0  0  0  0  0  0  0  0  0
   -0.5153   10.0332   24.5329 H   0  0  0  0  0  0  0  0  0  0  0  0
    8.0565   11.6306   23.6951 N   0  0  0  0  0  0  0  0  0  0  0  0
    9.0693   11.5302   23.8533 H   0  0  0  0  0  0  0  0  0  0  0  0
    7.2119   10.6322   23.0190 C   0  0  0  0  0  0  0  0  0  0  0  0
    7.4199    9.2572   23.6868 C   0  0  0  0  0  0  0  0  0  0  0  0
    6.0513    7.3229   24.1227 C   0  0  0  0  0  0  0  0  0  0  0  0
    5.1062    6.2897   23.4797 C   0  0  0  0  0  0  0  0  0  0  0  0
    4.4235    7.8665   21.8739 C   0  0  0  0  0  0  0  0  0  0  0  0
    5.3557    8.9279   22.4887 C   0  0  0  0  0  0  0  0  0  0  0  0
    6.5146    8.2582   23.0909 N   0  0  0  0  0  0  0  0  0  0  0  0
    3.9813    6.9629   22.8968 O   0  0  0  0  0  0  0  0  0  0  0  0
  1  2  1  0  0  0
  1  5  2  0  0  0
  2  3  2  0  0  0
  2 21  1  0  0  0
  3  4  1  0  0  0
  4  7  2  0  0  0
  5  7  1  0  0  0
  6  5  1  0  0  0
  6  9  2  0  0  0
  6 10  1  0  0  0
  7  8  1  0  0  0
  8  9  1  0  0  0
 10 13  1  0  0  0
 11 12  1  0  0  0
 11 15  2  0  0  0
 11 18  1  0  0  0
 12 10  2  0  0  0
 13 14  2  0  0  0
 13 16  1  0  0  0
 14 15  1  0  0  0
 15 17  1  0  0  0
 21 23  1  0  0  0
 21 22  1  0  0  0
 23 24  1  0  0  0
 24 29  1  0  0  0
 25 29  1  0  0  0
 25 26  1  0  0  0
 26 30  1  0  0  0
 27 28  1  0  0  0
 28 29  1  0  0  0
 30 27  1  0  0  0
 16 19  1  0  0  0
 17 20  1  0  0  0
M  END
> <minimizedAffinity>
-9.31785

$$$$
