ZINC31166971
 OpenBabel07192215303D

 40 44  0  0  0  0  0  0  0  0999 V2000
    6.5297   12.8337   23.8636 N   0  0  0  0  0  0  0  0  0  0  0  0
    5.3833   12.2801   24.5936 C   0  0  0  0  0  0  0  0  0  0  0  0
    5.3156   10.8189   24.2264 C   0  0  0  0  0  0  0  0  0  0  0  0
    6.3668   10.5836   23.3398 C   0  0  0  0  0  0  0  0  0  0  0  0
    6.5620    9.3023   22.8216 C   0  0  0  0  0  0  0  0  0  0  0  0
    5.7098    8.2762   23.1986 C   0  0  0  0  0  0  0  0  0  0  0  0
    4.6734    8.5217   24.0808 C   0  0  0  0  0  0  0  0  0  0  0  0
    4.4608    9.7930   24.6010 C   0  0  0  0  0  0  0  0  0  0  0  0
    3.3836    9.8078   25.4349 O   0  0  0  0  0  0  0  0  0  0  0  0
    2.5767    8.6433   25.1986 C   0  0  2  0  0  0  0  0  0  0  0  0
    3.6040    7.6157   24.6658 C   0  0  0  0  0  0  0  0  0  0  0  0
    1.5792    8.9019   24.0855 C   0  0  1  0  0  0  0  0  0  0  0  0
    0.6252    7.7311   23.9178 C   0  0  0  0  0  0  0  0  0  0  0  0
    0.0087    7.2931   25.2424 C   0  0  0  0  0  0  0  0  0  0  0  0
    1.0793    6.9392   26.2810 C   0  0  1  0  0  0  0  0  0  0  0  0
    1.9590    8.1660   26.5062 C   0  0  2  0  0  0  0  0  0  0  0  0
    1.1069    9.2614   27.1557 C   0  0  0  0  0  0  0  0  0  0  0  0
    0.6271    8.7826   28.5279 C   0  0  2  0  0  0  0  0  0  0  0  0
   -0.2292    7.5324   28.3862 C   0  0  2  0  0  0  0  0  0  0  0  0
    0.4133    6.4336   27.5528 C   0  0  0  0  0  0  0  0  0  0  0  0
   -0.7151    5.4395   27.1792 C   0  0  0  0  0  0  0  0  0  0  0  0
    1.3836    5.6191   28.4201 C   0  0  0  0  0  0  0  0  0  0  0  0
   -1.5019    7.8812   27.8289 O   0  0  0  0  0  0  0  0  0  0  0  0
   -0.1767    9.8253   29.1088 O   0  0  0  0  0  0  0  0  0  0  0  0
    3.1294    7.8751   27.4610 C   0  0  0  0  0  0  0  0  0  0  0  0
    0.8459   10.2243   24.2430 C   0  0  0  0  0  0  0  0  0  0  0  0
    5.8946    7.0254   22.7006 O   0  0  0  0  0  0  0  0  0  0  0  0
    7.0931   11.8531   23.1375 C   0  0  0  0  0  0  0  0  0  0  0  0
    8.0623   11.9903   22.4169 O   0  0  0  0  0  0  0  0  0  0  0  0
   -1.3702    8.2931   26.9383 H   0  0  0  0  0  0  0  0  0  0  0  0
   -0.9610   10.0116   28.5342 H   0  0  0  0  0  0  0  0  0  0  0  0
    6.8253    6.7890   22.9413 H   0  0  0  0  0  0  0  0  0  0  0  0
    6.9856   14.2250   23.9176 C   0  0  2  0  0  0  0  0  0  0  0  0
    8.3414   14.2843   24.5727 C   0  0  0  0  0  0  0  0  0  0  0  0
    9.0963   15.1926   24.3178 O   0  0  0  0  0  0  0  0  0  0  0  0
    8.7103   13.3283   25.4397 O   0  5  0  0  0  0  0  0  0  0  0  0
    5.9902   15.0567   24.7291 C   0  0  1  0  0  0  0  0  0  0  0  0
    4.5956   14.4380   24.6140 C   0  0  0  0  0  0  0  0  0  0  0  0
    5.1808   15.1713   27.0900 C   0  0  0  0  0  0  0  0  0  0  0  0
    6.4198   15.0766   26.1974 C   0  0  0  0  0  0  0  0  0  0  0  0
  1 28  1  0  0  0  0
  1  2  1  0  0  0  0
  2  3  1  0  0  0  0
  3  8  2  0  0  0  0
  3  4  1  0  0  0  0
  4  5  2  0  0  0  0
  4 28  1  0  0  0  0
  5  6  1  0  0  0  0
  6  7  2  0  0  0  0
  6 27  1  0  0  0  0
  7 11  1  0  0  0  0
  7  8  1  0  0  0  0
  8  9  1  0  0  0  0
 10  9  1  0  0  0  0
 10 16  1  0  0  0  0
 10 11  1  6  0  0  0
 10 12  1  0  0  0  0
 12 13  1  0  0  0  0
 12 26  1  1  0  0  0
 13 14  1  0  0  0  0
 15 14  1  6  0  0  0
 15 20  1  0  0  0  0
 15 16  1  0  0  0  0
 16 17  1  0  0  0  0
 16 25  1  1  0  0  0
 17 18  1  0  0  0  0
 18 19  1  0  0  0  0
 18 24  1  6  0  0  0
 19 20  1  0  0  0  0
 19 23  1  6  0  0  0
 20 21  1  0  0  0  0
 20 22  1  0  0  0  0
 23 30  1  0  0  0  0
 24 31  1  0  0  0  0
 27 32  1  0  0  0  0
 28 29  2  0  0  0  0
 33 34  1  1  0  0  0
 33  1  1  0  0  0  0
 34 35  2  0  0  0  0
 34 36  1  0  0  0  0
 37 38  1  1  0  0  0
 37 33  1  0  0  0  0
 39 40  1  0  0  0  0
 40 37  1  0  0  0  0
M  CHG  1  36  -1
M  END
>  <minimizedAffinity>
-0.99927

$$$$
