ZINC05923011


 38 42  0  0  0  0  0  0  0  0999 V2000
    7.5363   11.8350   22.7082 C   0  0  0  0  0  0  0  0  0  0  0  0
    7.1204   10.3782   22.4950 C   0  0  0  0  0  0  0  0  0  0  0  0
    6.3444   10.2556   21.1817 C   0  0  0  0  0  0  0  0  0  0  0  0
    5.9386    8.7962   20.9682 C   0  0  0  0  0  0  0  0  0  0  0  0
    5.0639    8.3129   22.1249 C   0  0  0  0  0  0  0  0  0  0  0  0
    3.7775    9.1367   22.1675 C   0  0  0  0  0  0  0  0  0  0  0  0
    2.8494    8.5901   23.2551 C   0  0  0  0  0  0  0  0  0  0  0  0
    3.5306    8.7281   24.6194 C   0  0  0  0  0  0  0  0  0  0  0  0
    4.8759    8.0701   24.5738 C   0  0  0  0  0  0  0  0  0  0  0  0
    5.2780    7.1802   25.4316 C   0  0  0  0  0  0  0  0  0  0  0  0
    4.4204    6.7000   26.5646 C   0  0  0  0  0  0  0  0  0  0  0  0
    3.4227    7.7990   26.9530 C   0  0  0  0  0  0  0  0  0  0  0  0
    2.6150    8.1819   25.7031 C   0  0  0  0  0  0  0  0  0  0  0  0
    1.6069    9.2738   26.0853 C   0  0  0  0  0  0  0  0  0  0  0  0
    0.7511    8.7958   27.2196 C   0  0  0  0  0  0  0  0  0  0  0  0
    1.1486    7.9060   28.0800 C   0  0  0  0  0  0  0  0  0  0  0  0
    2.5135    7.2632   28.0470 C   0  0  0  0  0  0  0  0  0  0  0  0
    3.1661    7.3519   29.3992 C   0  0  0  0  0  0  0  0  0  0  0  0
    2.2300    6.7934   30.4729 C   0  0  0  0  0  0  0  0  0  0  0  0
    0.9509    7.6300   30.5300 C   0  0  0  0  0  0  0  0  0  0  0  0
    0.2009    7.5094   29.1998 C   0  0  0  0  0  0  0  0  0  0  0  0
   -0.2609    6.0649   28.9973 C   0  0  0  0  0  0  0  0  0  0  0  0
    0.1188    7.1559   31.5905 O   0  0  0  0  0  0  0  0  0  0  0  0
    1.8986    5.4397   30.1570 O   0  0  0  0  0  0  0  0  0  0  0  0
    2.2751    5.7761   27.7777 C   0  0  0  0  0  0  0  0  0  0  0  0
    1.8649    6.9600   25.1688 C   0  0  0  0  0  0  0  0  0  0  0  0
    5.8185    8.4673   23.4479 C   0  0  0  0  0  0  0  0  0  0  0  0
    6.2298    9.9268   23.6538 C   0  0  0  0  0  0  0  0  0  0  0  0
    3.7438   10.2189   24.8892 C   0  0  0  0  0  0  0  0  0  0  0  0
    8.3681    9.4945   22.4358 C   0  0  0  0  0  0  0  0  0  0  0  0
    0.6022    7.2343   32.4509 H   0  0  0  0  0  0  0  0  0  0  0  0
    2.7248    4.8952   30.1248 H   0  0  0  0  0  0  0  0  0  0  0  0
   -1.0111    8.4432   29.2046 C   0  0  0  0  0  0  0  0  0  0  0  0
   -0.5948    9.7657   28.8583 O   0  0  0  0  0  0  0  0  0  0  0  0
   -0.1879    9.7589   27.9558 H   0  0  0  0  0  0  0  0  0  0  0  0
    4.7020    6.8637   21.9250 C   0  0  0  0  0  0  0  0  0  0  0  0
    3.7160    6.5691   21.2919 O   0  0  0  0  0  0  0  0  0  0  0  0
    5.4752    5.9003   22.4503 O   0  0  0  0  0  0  0  0  0  0  0  0
  1  2  1  0  0  0
  2 28  1  0  0  0
  2  3  1  0  0  0
  2 30  1  0  0  0
  3  4  1  0  0  0
  4  5  1  0  0  0
  5 27  1  0  0  0
  5  6  1  0  0  0
  5 36  1  0  0  0
  6  7  1  0  0  0
  7  8  1  0  0  0
  8 13  1  0  0  0
  8  9  1  0  0  0
  8 29  1  0  0  0
  9 10  2  0  0  0
  9 27  1  0  0  0
 10 11  1  0  0  0
 11 12  1  0  0  0
 12 17  1  0  0  0
 12 13  1  0  0  0
 13 14  1  0  0  0
 13 26  1  0  0  0
 14 15  1  0  0  0
 15 16  2  0  0  0
 16 21  1  0  0  0
 16 17  1  0  0  0
 17 18  1  0  0  0
 17 25  1  0  0  0
 18 19  1  0  0  0
 19 20  1  0  0  0
 19 24  1  0  0  0
 20 21  1  0  0  0
 20 23  1  0  0  0
 21 22  1  0  0  0
 21 33  1  0  0  0
 33 34  1  0  0  0
 34 35  1  0  0  0
 23 31  1  0  0  0
 24 32  1  0  0  0
 27 28  1  0  0  0
 36 37  2  0  0  0
 36 38  1  0  0  0
M  CHG 1  38  -1
M  END
> <minimizedAffinity>
2.43364

$$$$
ZINC05923011


 38 42  0  0  0  0  0  0  0  0999 V2000
    1.3601    6.9139   31.0034 C   0  0  0  0  0  0  0  0  0  0  0  0
    0.7274    7.1232   29.6262 C   0  0  0  0  0  0  0  0  0  0  0  0
    0.1246    5.8049   29.1355 C   0  0  0  0  0  0  0  0  0  0  0  0
   -0.5148    6.0209   27.7627 C   0  0  0  0  0  0  0  0  0  0  0  0
    0.5310    6.5085   26.7600 C   0  0  0  0  0  0  0  0  0  0  0  0
    1.6100    5.4398   26.5913 C   0  0  0  0  0  0  0  0  0  0  0  0
    2.6034    5.8741   25.5108 C   0  0  0  0  0  0  0  0  0  0  0  0
    3.2985    7.1656   25.9505 C   0  0  0  0  0  0  0  0  0  0  0  0
    2.2659    8.1985   26.2850 C   0  0  0  0  0  0  0  0  0  0  0  0
    2.2521    9.3987   25.7867 C   0  0  0  0  0  0  0  0  0  0  0  0
    3.2736    9.8787   24.7987 C   0  0  0  0  0  0  0  0  0  0  0  0
    4.5837    9.1063   25.0008 C   0  0  0  0  0  0  0  0  0  0  0  0
    4.2828    7.6044   24.8785 C   0  0  0  0  0  0  0  0  0  0  0  0
    5.5905    6.8244   25.0689 C   0  0  0  0  0  0  0  0  0  0  0  0
    6.6130    7.3054   24.0837 C   0  0  0  0  0  0  0  0  0  0  0  0
    6.6035    8.5049   23.5823 C   0  0  0  0  0  0  0  0  0  0  0  0
    5.5772    9.5518   23.9400 C   0  0  0  0  0  0  0  0  0  0  0  0
    6.2547   10.8383   24.3245 C   0  0  0  0  0  0  0  0  0  0  0  0
    7.2366   11.2633   23.2305 C   0  0  0  0  0  0  0  0  0  0  0  0
    8.3284   10.2035   23.0755 C   0  0  0  0  0  0  0  0  0  0  0  0
    7.7012    8.8880   22.6038 C   0  0  0  0  0  0  0  0  0  0  0  0
    7.1055    9.0726   21.2067 C   0  0  0  0  0  0  0  0  0  0  0  0
    9.2878   10.6457   22.1132 O   0  0  0  0  0  0  0  0  0  0  0  0
    6.5361   11.4083   21.9935 O   0  0  0  0  0  0  0  0  0  0  0  0
    4.7992    9.8391   22.6543 C   0  0  0  0  0  0  0  0  0  0  0  0
    3.7024    7.2967   23.4966 C   0  0  0  0  0  0  0  0  0  0  0  0
    1.1668    7.8078   27.2613 C   0  0  0  0  0  0  0  0  0  0  0  0
    1.7979    7.5897   28.6382 C   0  0  0  0  0  0  0  0  0  0  0  0
    4.0914    6.8622   27.2233 C   0  0  0  0  0  0  0  0  0  0  0  0
   -0.3723    8.1824   29.7252 C   0  0  0  0  0  0  0  0  0  0  0  0
    9.6945   11.4954   22.4176 H   0  0  0  0  0  0  0  0  0  0  0  0
    5.8323   12.0978   22.0902 H   0  0  0  0  0  0  0  0  0  0  0  0
    8.7675    7.7913   22.5698 C   0  0  0  0  0  0  0  0  0  0  0  0
    9.2753    7.5796   23.8886 O   0  0  0  0  0  0  0  0  0  0  0  0
    8.5369    7.3026   24.4871 H   0  0  0  0  0  0  0  0  0  0  0  0
   -0.1162    6.7557   25.4216 C   0  0  0  0  0  0  0  0  0  0  0  0
   -0.3329    5.8305   24.6753 O   0  0  0  0  0  0  0  0  0  0  0  0
   -0.4521    8.0037   25.0588 O   0  0  0  0  0  0  0  0  0  0  0  0
  1  2  1  0  0  0
  2 28  1  0  0  0
  2  3  1  0  0  0
  2 30  1  0  0  0
  3  4  1  0  0  0
  4  5  1  0  0  0
  5 27  1  0  0  0
  5  6  1  0  0  0
  5 36  1  0  0  0
  6  7  1  0  0  0
  7  8  1  0  0  0
  8 13  1  0  0  0
  8  9  1  0  0  0
  8 29  1  0  0  0
  9 10  2  0  0  0
  9 27  1  0  0  0
 10 11  1  0  0  0
 11 12  1  0  0  0
 12 17  1  0  0  0
 12 13  1  0  0  0
 13 14  1  0  0  0
 13 26  1  0  0  0
 14 15  1  0  0  0
 15 16  2  0  0  0
 16 21  1  0  0  0
 16 17  1  0  0  0
 17 18  1  0  0  0
 17 25  1  0  0  0
 18 19  1  0  0  0
 19 20  1  0  0  0
 19 24  1  0  0  0
 20 21  1  0  0  0
 20 23  1  0  0  0
 21 22  1  0  0  0
 21 33  1  0  0  0
 33 34  1  0  0  0
 34 35  1  0  0  0
 23 31  1  0  0  0
 24 32  1  0  0  0
 27 28  1  0  0  0
 36 37  2  0  0  0
 36 38  1  0  0  0
M  CHG 1  38  -1
M  END
> <minimizedAffinity>
3.18793

$$$$
