BDB20739
 OpenBabel07192215303D

 30 33  0  0  0  0  0  0  0  0999 V2000
    4.4239   13.1918   24.4226 C   0  0  0  0  0  0  0  0  0  0  0  0
    3.6119   14.2783   24.7478 C   0  0  0  0  0  0  0  0  0  0  0  0
    4.1690   15.5269   25.0491 C   0  0  0  0  0  0  0  0  0  0  0  0
    5.5489   15.7335   25.0363 C   0  0  0  0  0  0  0  0  0  0  0  0
    5.7866   13.4320   24.4194 C   0  0  0  0  0  0  0  0  0  0  0  0
    6.8661   12.6257   24.1549 C   0  0  0  0  0  0  0  0  0  0  0  0
    6.3376   14.6431   24.7111 C   0  0  0  0  0  0  0  0  0  0  0  0
    7.6281   14.5503   24.6239 O   0  0  0  0  0  0  0  0  0  0  0  0
    7.9518   13.3881   24.3025 N   0  0  0  0  0  0  0  0  0  0  0  0
    6.8350   11.2109   23.7843 C   0  0  0  0  0  0  0  0  0  0  0  0
    5.6179    9.2833   23.0136 C   0  0  0  0  0  0  0  0  0  0  0  0
    5.6455   10.6273   23.3652 C   0  0  0  0  0  0  0  0  0  0  0  0
    7.9962   10.4504   23.8517 C   0  0  0  0  0  0  0  0  0  0  0  0
    7.9686    9.1060   23.5000 C   0  0  0  0  0  0  0  0  0  0  0  0
    6.7788    8.5225   23.0808 C   0  0  0  0  0  0  0  0  0  0  0  0
    9.1842   11.0346   24.2707 O   0  0  0  0  0  0  0  0  0  0  0  0
    6.7491    7.1796   22.7290 O   0  0  0  0  0  0  0  0  0  0  0  0
    4.1480    8.5629   22.4959 Cl  0  0  0  0  0  0  0  0  0  0  0  0
    8.9826   11.4116   25.1636 H   0  0  0  0  0  0  0  0  0  0  0  0
    6.3966    7.1653   21.8039 H   0  0  0  0  0  0  0  0  0  0  0  0
    2.1872   14.1154   24.7743 N   0  0  0  0  0  0  0  0  0  0  0  0
    1.5625   14.5368   25.4765 H   0  0  0  0  0  0  0  0  0  0  0  0
    1.7401   13.2632   23.6601 C   0  0  0  0  0  0  0  0  0  0  0  0
    0.4627   12.5077   24.0814 C   0  0  0  0  0  0  0  0  0  0  0  0
   -0.4429   10.8200   25.5429 C   0  0  0  0  0  0  0  0  0  0  0  0
   -0.0816    9.7449   26.5859 C   0  0  0  0  0  0  0  0  0  0  0  0
    2.0051    9.4023   25.5566 C   0  0  0  0  0  0  0  0  0  0  0  0
    1.6807   10.4705   24.4949 C   0  0  0  0  0  0  0  0  0  0  0  0
    0.7869   11.4755   25.0824 N   0  0  0  0  0  0  0  0  0  0  0  0
    0.7919    8.7731   25.9935 O   0  0  0  0  0  0  0  0  0  0  0  0
  1  2  1  0  0  0  0
  1  5  2  0  0  0  0
  2  3  2  0  0  0  0
  2 21  1  0  0  0  0
  3  4  1  0  0  0  0
  4  7  2  0  0  0  0
  5  7  1  0  0  0  0
  6  5  1  0  0  0  0
  6  9  2  0  0  0  0
  6 10  1  0  0  0  0
  7  8  1  0  0  0  0
  8  9  1  0  0  0  0
 10 13  1  0  0  0  0
 11 12  1  0  0  0  0
 11 15  2  0  0  0  0
 11 18  1  0  0  0  0
 12 10  2  0  0  0  0
 13 14  2  0  0  0  0
 13 16  1  0  0  0  0
 14 15  1  0  0  0  0
 15 17  1  0  0  0  0
 16 19  1  0  0  0  0
 17 20  1  0  0  0  0
 21 23  1  0  0  0  0
 21 22  1  0  0  0  0
 23 24  1  0  0  0  0
 24 29  1  0  0  0  0
 25 29  1  0  0  0  0
 25 26  1  0  0  0  0
 26 30  1  0  0  0  0
 27 28  1  0  0  0  0
 28 29  1  0  0  0  0
 30 27  1  0  0  0  0
M  END
>  <minimizedAffinity>
-9.64749

$$$$
