ZINC24759702
 OpenBabel07192215303D

 38 42  0  0  0  0  0  0  0  0999 V2000
    1.3950    8.0638   26.8899 N   0  0  0  0  0  0  0  0  0  0  0  0
    2.5544    7.6100   26.3603 C   0  0  0  0  0  0  0  0  0  0  0  0
    2.8850    6.4439   26.4721 O   0  0  0  0  0  0  0  0  0  0  0  0
    3.4005    8.5767   25.6436 C   0  0  0  0  0  0  0  0  0  0  0  0
    4.6125    8.2010   25.0648 C   0  0  0  0  0  0  0  0  0  0  0  0
    5.3659    9.1270   24.4022 C   0  0  0  0  0  0  0  0  0  0  0  0
    4.9394   10.4577   24.3077 C   0  0  0  0  0  0  0  0  0  0  0  0
    3.7364   10.8543   24.8772 C   0  0  0  0  0  0  0  0  0  0  0  0
    2.9531    9.9143   25.5527 C   0  0  0  0  0  0  0  0  0  0  0  0
    1.7736   10.2563   26.1224 N   0  0  0  0  0  0  0  0  0  0  0  0
    1.0374    9.3769   26.7558 C   0  0  0  0  0  0  0  0  0  0  0  0
   -0.4839    9.9106   27.4669 S   0  0  0  0  0  0  0  0  0  0  0  0
    2.1246    5.9362   26.0924 H   0  0  0  0  0  0  0  0  0  0  0  0
   -0.1010    6.1000   31.1430 C   0  0  0  0  0  0  0  0  0  0  0  0
   -0.1913    6.2103   29.6427 C   0  0  0  0  0  0  0  0  0  0  0  0
   -1.1052    5.4398   28.9471 C   0  0  0  0  0  0  0  0  0  0  0  0
   -1.1911    5.5381   27.5707 C   0  0  0  0  0  0  0  0  0  0  0  0
   -0.3637    6.4069   26.8860 C   0  0  0  0  0  0  0  0  0  0  0  0
    0.5548    7.1818   27.5814 C   0  0  0  0  0  0  0  0  0  0  0  0
    0.6425    7.0766   28.9633 C   0  0  0  0  0  0  0  0  0  0  0  0
    1.6427    7.9110   29.7214 C   0  0  0  0  0  0  0  0  0  0  0  0
    5.7743   11.4477   23.5902 C   0  0  0  0  0  0  0  0  0  0  0  0
    6.0872   11.2533   22.4321 O   0  0  0  0  0  0  0  0  0  0  0  0
    6.1872   12.5647   24.2215 N   0  0  0  0  0  0  0  0  0  0  0  0
    5.9220   12.7295   25.2030 H   0  0  0  0  0  0  0  0  0  0  0  0
    6.9772   13.5016   23.5424 N   0  0  0  0  0  0  0  0  0  0  0  0
    7.4262   14.5972   24.1861 C   0  0  0  0  0  0  0  0  0  0  0  0
    7.1455   14.7727   25.3561 O   0  0  0  0  0  0  0  0  0  0  0  0
    7.2148   13.3530   22.5513 H   0  0  0  0  0  0  0  0  0  0  0  0
    8.2585   15.5843   23.4709 C   0  0  0  0  0  0  0  0  0  0  0  0
    9.6393   15.6189   23.6803 C   0  0  0  0  0  0  0  0  0  0  0  0
   10.4145   16.5414   23.0126 C   0  0  0  0  0  0  0  0  0  0  0  0
    9.8281   17.4394   22.1305 C   0  0  0  0  0  0  0  0  0  0  0  0
    8.4495   17.4097   21.9165 C   0  0  0  0  0  0  0  0  0  0  0  0
    7.6673   16.4869   22.5831 C   0  0  0  0  0  0  0  0  0  0  0  0
    8.1279   18.3832   21.0148 O   0  0  0  0  0  0  0  0  0  0  0  0
    9.3673   18.7359   20.3727 C   0  0  0  0  0  0  0  0  0  0  0  0
   10.3659   18.4305   21.3638 O   0  0  0  0  0  0  0  0  0  0  0  0
  1 11  1  0  0  0  0
  1  2  1  0  0  0  0
  2  3  1  0  0  0  0
  2  4  2  0  0  0  0
  3 13  1  0  0  0  0
  4  9  1  0  0  0  0
  4  5  1  0  0  0  0
  5  6  2  0  0  0  0
  6  7  1  0  0  0  0
  7  8  2  0  0  0  0
  7 22  1  0  0  0  0
  8  9  1  0  0  0  0
  9 10  2  0  0  0  0
 10 11  1  0  0  0  0
 11 12  2  0  0  0  0
 14 15  1  0  0  0  0
 15 20  2  0  0  0  0
 15 16  1  0  0  0  0
 16 17  2  0  0  0  0
 17 18  1  0  0  0  0
 18 19  2  0  0  0  0
 19 20  1  0  0  0  0
 19  1  1  0  0  0  0
 20 21  1  0  0  0  0
 22 23  2  0  0  0  0
 22 24  1  0  0  0  0
 24 26  1  0  0  0  0
 24 25  1  0  0  0  0
 26 27  1  0  0  0  0
 26 29  1  0  0  0  0
 27 28  2  0  0  0  0
 27 30  1  0  0  0  0
 30 35  2  0  0  0  0
 30 31  1  0  0  0  0
 31 32  2  0  0  0  0
 32 33  1  0  0  0  0
 33 38  1  0  0  0  0
 33 34  2  0  0  0  0
 34 35  1  0  0  0  0
 34 36  1  0  0  0  0
 36 37  1  0  0  0  0
 37 38  1  0  0  0  0
M  END
>  <minimizedAffinity>
29.64642

$$$$
