ZINC17208235


 36 40  0  0  0  0  0  0  0  0999 V2000
    5.2427    5.5878   22.5311 C   0  0  0  0  0  0  0  0  0  0  0  0
    4.9525    5.9824   23.9563 C   0  0  0  0  0  0  0  0  0  0  0  0
    5.8252    6.4752   24.6386 O   0  0  0  0  0  0  0  0  0  0  0  0
    3.7228    5.7876   24.4724 N   0  0  0  0  0  0  0  0  0  0  0  0
    3.4632    6.1406   25.7470 C   0  0  0  0  0  0  0  0  0  0  0  0
    4.3381    6.6346   26.4310 O   0  0  0  0  0  0  0  0  0  0  0  0
    2.2334    5.9457   26.2630 N   0  0  0  0  0  0  0  0  0  0  0  0
    2.9814    5.3690   23.8928 H   0  0  0  0  0  0  0  0  0  0  0  0
    1.5158    5.4533   25.7122 H   0  0  0  0  0  0  0  0  0  0  0  0
    1.9312    6.4131   27.5490 C   0  0  0  0  0  0  0  0  0  0  0  0
    1.1241    7.5312   27.7098 C   0  0  0  0  0  0  0  0  0  0  0  0
    0.8267    7.9928   28.9773 C   0  0  0  0  0  0  0  0  0  0  0  0
    1.3324    7.3416   30.0926 C   0  0  0  0  0  0  0  0  0  0  0  0
    2.1386    6.2203   29.9349 C   0  0  0  0  0  0  0  0  0  0  0  0
    2.4381    5.7583   28.6624 C   0  0  0  0  0  0  0  0  0  0  0  0
    2.6370    5.5629   31.0175 O   0  0  0  0  0  0  0  0  0  0  0  0
    2.6248    6.2702   32.2623 C   0  0  0  0  0  0  0  0  0  0  0  0
    1.2452    6.9206   32.4320 C   0  0  0  0  0  0  0  0  0  0  0  0
    1.0349    7.8161   31.3342 O   0  0  0  0  0  0  0  0  0  0  0  0
    4.2796    6.6308   21.4083 S   0  0  0  0  0  0  0  0  0  0  0  0
    4.9472   15.9093   25.7186 C   0  0  0  0  0  0  0  0  0  0  0  0
    5.0329   14.4241   25.3613 C   0  0  0  0  0  0  0  0  0  0  0  0
    6.1683   14.1981   24.3586 C   0  0  0  0  0  0  0  0  0  0  0  0
    6.4209   12.6996   24.1888 C   0  0  0  0  0  0  0  0  0  0  0  0
    5.0999   12.0117   23.8553 C   0  0  0  0  0  0  0  0  0  0  0  0
    3.9235   12.6191   24.1103 C   0  0  0  0  0  0  0  0  0  0  0  0
    2.6857   11.4713   23.5695 S   0  0  0  0  0  0  0  0  0  0  0  0
    3.7556   10.1740   23.0009 C   0  0  0  0  0  0  0  0  0  0  0  0
    5.0426   10.6793   23.2509 C   0  0  0  0  0  0  0  0  0  0  0  0
    6.1298    9.8250   22.8825 C   0  0  0  0  0  0  0  0  0  0  0  0
    7.2823   10.1795   23.0613 O   0  0  0  0  0  0  0  0  0  0  0  0
    5.8622    8.6248   22.3354 N   0  0  0  0  0  0  0  0  0  0  0  0
    4.5782    8.2114   22.1274 C   0  0  0  0  0  0  0  0  0  0  0  0
    3.5590    8.9810   22.4523 N   0  0  0  0  0  0  0  0  0  0  0  0
    3.7132   13.9715   24.7203 C   0  0  0  0  0  0  0  0  0  0  0  0
    6.6414    8.0064   22.0686 H   0  0  0  0  0  0  0  0  0  0  0  0
 21 22  1  0  0  0
 22 35  1  0  0  0
 22 23  1  0  0  0
 23 24  1  0  0  0
 24 25  1  0  0  0
 25 29  1  0  0  0
 25 26  2  0  0  0
 26 27  1  0  0  0
 26 35  1  0  0  0
 27 28  1  0  0  0
 28 34  1  0  0  0
 28 29  2  0  0  0
 29 30  1  0  0  0
 30 31  2  0  0  0
 30 32  1  0  0  0
 32 33  1  0  0  0
 32 36  1  0  0  0
 33 34  2  0  0  0
 33 20  1  0  0  0
 20  1  1  0  0  0
  1  2  1  0  0  0
  2  3  2  0  0  0
  2  4  1  0  0  0
  4  5  1  0  0  0
  4  8  1  0  0  0
  5  6  2  0  0  0
  5  7  1  0  0  0
  7 10  1  0  0  0
  7  9  1  0  0  0
 10 15  2  0  0  0
 10 11  1  0  0  0
 11 12  2  0  0  0
 12 13  1  0  0  0
 13 19  1  0  0  0
 13 14  2  0  0  0
 14 15  1  0  0  0
 14 16  1  0  0  0
 16 17  1  0  0  0
 17 18  1  0  0  0
 18 19  1  0  0  0
M  END
> <minimizedAffinity>
-8.35799

$$$$
ZINC17208235


 36 40  0  0  0  0  0  0  0  0999 V2000
   -1.4923   11.1479   24.9520 C   0  0  0  0  0  0  0  0  0  0  0  0
   -0.5727   10.1446   25.5992 C   0  0  0  0  0  0  0  0  0  0  0  0
    0.1314    9.4361   24.9120 O   0  0  0  0  0  0  0  0  0  0  0  0
   -0.5330   10.0348   26.9419 N   0  0  0  0  0  0  0  0  0  0  0  0
    0.2894    9.1375   27.5207 C   0  0  0  0  0  0  0  0  0  0  0  0
    0.9952    8.4272   26.8317 O   0  0  0  0  0  0  0  0  0  0  0  0
    0.3291    9.0278   28.8634 N   0  0  0  0  0  0  0  0  0  0  0  0
   -1.1311   10.6367   27.5257 H   0  0  0  0  0  0  0  0  0  0  0  0
   -0.3263    9.5701   29.4441 H   0  0  0  0  0  0  0  0  0  0  0  0
    1.2621    8.1759   29.4694 C   0  0  0  0  0  0  0  0  0  0  0  0
    0.8589    7.3067   30.4741 C   0  0  0  0  0  0  0  0  0  0  0  0
    1.7784    6.4673   31.0724 C   0  0  0  0  0  0  0  0  0  0  0  0
    3.1062    6.4896   30.6720 C   0  0  0  0  0  0  0  0  0  0  0  0
    3.5123    7.3570   29.6646 C   0  0  0  0  0  0  0  0  0  0  0  0
    2.5893    8.2003   29.0654 C   0  0  0  0  0  0  0  0  0  0  0  0
    4.8092    7.3871   29.2523 O   0  0  0  0  0  0  0  0  0  0  0  0
    5.7772    6.7987   30.1278 C   0  0  0  0  0  0  0  0  0  0  0  0
    5.2391    5.4396   30.5954 C   0  0  0  0  0  0  0  0  0  0  0  0
    4.0002    5.6604   31.2791 O   0  0  0  0  0  0  0  0  0  0  0  0
   -0.9660   11.4347   23.2441 S   0  0  0  0  0  0  0  0  0  0  0  0
    8.4853   14.8570   25.2628 C   0  0  0  0  0  0  0  0  0  0  0  0
    7.1673   14.0840   25.1828 C   0  0  0  0  0  0  0  0  0  0  0  0
    7.1518   13.2174   23.9201 C   0  0  0  0  0  0  0  0  0  0  0  0
    5.9585   12.2622   23.9601 C   0  0  0  0  0  0  0  0  0  0  0  0
    4.6898   13.0692   24.2217 C   0  0  0  0  0  0  0  0  0  0  0  0
    4.7587   14.3138   24.7357 C   0  0  0  0  0  0  0  0  0  0  0  0
    3.0751   14.8530   24.8643 S   0  0  0  0  0  0  0  0  0  0  0  0
    2.2804   13.4001   24.2255 C   0  0  0  0  0  0  0  0  0  0  0  0
    3.3543   12.5429   23.9324 C   0  0  0  0  0  0  0  0  0  0  0  0
    3.0026   11.2665   23.3896 C   0  0  0  0  0  0  0  0  0  0  0  0
    3.8679   10.4567   23.1039 O   0  0  0  0  0  0  0  0  0  0  0  0
    1.7032   10.9725   23.1986 N   0  0  0  0  0  0  0  0  0  0  0  0
    0.7210   11.8667   23.5123 C   0  0  0  0  0  0  0  0  0  0  0  0
    1.0180   13.0511   24.0081 N   0  0  0  0  0  0  0  0  0  0  0  0
    5.9940   15.0721   25.1157 C   0  0  0  0  0  0  0  0  0  0  0  0
    1.4450   10.0550   22.8082 H   0  0  0  0  0  0  0  0  0  0  0  0
 21 22  1  0  0  0
 22 35  1  0  0  0
 22 23  1  0  0  0
 23 24  1  0  0  0
 24 25  1  0  0  0
 25 29  1  0  0  0
 25 26  2  0  0  0
 26 27  1  0  0  0
 26 35  1  0  0  0
 27 28  1  0  0  0
 28 34  1  0  0  0
 28 29  2  0  0  0
 29 30  1  0  0  0
 30 31  2  0  0  0
 30 32  1  0  0  0
 32 33  1  0  0  0
 32 36  1  0  0  0
 33 34  2  0  0  0
 33 20  1  0  0  0
 20  1  1  0  0  0
  1  2  1  0  0  0
  2  3  2  0  0  0
  2  4  1  0  0  0
  4  5  1  0  0  0
  4  8  1  0  0  0
  5  6  2  0  0  0
  5  7  1  0  0  0
  7 10  1  0  0  0
  7  9  1  0  0  0
 10 15  2  0  0  0
 10 11  1  0  0  0
 11 12  2  0  0  0
 12 13  1  0  0  0
 13 19  1  0  0  0
 13 14  2  0  0  0
 14 15  1  0  0  0
 14 16  1  0  0  0
 16 17  1  0  0  0
 17 18  1  0  0  0
 18 19  1  0  0  0
M  END
> <minimizedAffinity>
-7.74819

$$$$
ZINC17208235


 36 40  0  0  0  0  0  0  0  0999 V2000
    0.4316   13.3115   23.9741 C   0  0  0  0  0  0  0  0  0  0  0  0
    1.9355   13.2189   23.9987 C   0  0  0  0  0  0  0  0  0  0  0  0
    2.4994   12.3460   23.3741 O   0  0  0  0  0  0  0  0  0  0  0  0
    2.6538   14.1063   24.7149 N   0  0  0  0  0  0  0  0  0  0  0  0
    3.9988   14.0235   24.7368 C   0  0  0  0  0  0  0  0  0  0  0  0
    4.5641   13.1484   24.1106 O   0  0  0  0  0  0  0  0  0  0  0  0
    4.7170   14.9110   25.4530 N   0  0  0  0  0  0  0  0  0  0  0  0
    2.1748   14.8479   25.2454 H   0  0  0  0  0  0  0  0  0  0  0  0
    4.2372   15.6011   26.0483 H   0  0  0  0  0  0  0  0  0  0  0  0
    6.1167   14.8949   25.3878 C   0  0  0  0  0  0  0  0  0  0  0  0
    6.7592   15.1658   24.1872 C   0  0  0  0  0  0  0  0  0  0  0  0
    8.1389   15.1491   24.1222 C   0  0  0  0  0  0  0  0  0  0  0  0
    8.8865   14.8624   25.2548 C   0  0  0  0  0  0  0  0  0  0  0  0
    8.2461   14.5934   26.4588 C   0  0  0  0  0  0  0  0  0  0  0  0
    6.8612   14.6088   26.5231 C   0  0  0  0  0  0  0  0  0  0  0  0
    8.9630   14.3184   27.5827 O   0  0  0  0  0  0  0  0  0  0  0  0
   10.3325   13.9444   27.3977 C   0  0  0  0  0  0  0  0  0  0  0  0
   10.9684   14.9253   26.4032 C   0  0  0  0  0  0  0  0  0  0  0  0
   10.2458   14.8427   25.1696 O   0  0  0  0  0  0  0  0  0  0  0  0
   -0.2621   11.7247   23.4478 S   0  0  0  0  0  0  0  0  0  0  0  0
    3.4394    5.5707   30.7650 C   0  0  0  0  0  0  0  0  0  0  0  0
    2.9331    6.7410   29.9194 C   0  0  0  0  0  0  0  0  0  0  0  0
    1.4023    6.7774   29.9507 C   0  0  0  0  0  0  0  0  0  0  0  0
    0.9005    8.0770   29.3206 C   0  0  0  0  0  0  0  0  0  0  0  0
    1.5358    8.2336   27.9417 C   0  0  0  0  0  0  0  0  0  0  0  0
    2.6417    7.5374   27.6097 C   0  0  0  0  0  0  0  0  0  0  0  0
    3.0136    8.0286   25.9477 S   0  0  0  0  0  0  0  0  0  0  0  0
    1.6783    9.1721   25.7026 C   0  0  0  0  0  0  0  0  0  0  0  0
    0.9862    9.1325   26.9247 C   0  0  0  0  0  0  0  0  0  0  0  0
   -0.1657    9.9764   27.0161 C   0  0  0  0  0  0  0  0  0  0  0  0
   -0.8293   10.0077   28.0382 O   0  0  0  0  0  0  0  0  0  0  0  0
   -0.5064   10.7351   25.9580 N   0  0  0  0  0  0  0  0  0  0  0  0
    0.2246   10.7127   24.8056 C   0  0  0  0  0  0  0  0  0  0  0  0
    1.2863    9.9402   24.6930 N   0  0  0  0  0  0  0  0  0  0  0  0
    3.3912    6.5616   28.4649 C   0  0  0  0  0  0  0  0  0  0  0  0
   -1.3347   11.3442   26.0190 H   0  0  0  0  0  0  0  0  0  0  0  0
 21 22  1  0  0  0
 22 35  1  0  0  0
 22 23  1  0  0  0
 23 24  1  0  0  0
 24 25  1  0  0  0
 25 29  1  0  0  0
 25 26  2  0  0  0
 26 27  1  0  0  0
 26 35  1  0  0  0
 27 28  1  0  0  0
 28 34  1  0  0  0
 28 29  2  0  0  0
 29 30  1  0  0  0
 30 31  2  0  0  0
 30 32  1  0  0  0
 32 33  1  0  0  0
 32 36  1  0  0  0
 33 34  2  0  0  0
 33 20  1  0  0  0
 20  1  1  0  0  0
  1  2  1  0  0  0
  2  3  2  0  0  0
  2  4  1  0  0  0
  4  5  1  0  0  0
  4  8  1  0  0  0
  5  6  2  0  0  0
  5  7  1  0  0  0
  7 10  1  0  0  0
  7  9  1  0  0  0
 10 15  2  0  0  0
 10 11  1  0  0  0
 11 12  2  0  0  0
 12 13  1  0  0  0
 13 19  1  0  0  0
 13 14  2  0  0  0
 14 15  1  0  0  0
 14 16  1  0  0  0
 16 17  1  0  0  0
 17 18  1  0  0  0
 18 19  1  0  0  0
M  END
> <minimizedAffinity>
-7.74464

$$$$
