ZINC03833892


 36 38  0  0  0  0  0  0  0  0999 V2000
    2.3252   10.1074   23.7219 C   0  0  0  0  0  0  0  0  0  0  0  0
    2.8449    8.9359   23.3433 N   0  0  0  0  0  0  0  0  0  0  0  0
    2.2868    8.0017   24.3305 C   0  0  0  0  0  0  0  0  0  0  0  0
    2.1015    6.5520   23.9323 C   0  0  0  0  0  0  0  0  0  0  0  0
    0.2693    6.5255   25.7608 C   0  0  0  0  0  0  0  0  0  0  0  0
    0.9418    8.5960   24.6918 C   0  0  0  0  0  0  0  0  0  0  0  0
    1.3393    9.9655   24.7411 N   0  0  0  0  0  0  0  0  0  0  0  0
    0.4735    6.5743   22.4561 H   0  0  0  0  0  0  0  0  0  0  0  0
    1.9605    7.0373   21.9574 H   0  0  0  0  0  0  0  0  0  0  0  0
    1.3919    5.8577   25.0503 N   0  0  0  0  0  0  0  0  0  0  0  0
    2.1115    5.6529   25.7721 H   0  0  0  0  0  0  0  0  0  0  0  0
    1.1096    4.8943   24.7934 H   0  0  0  0  0  0  0  0  0  0  0  0
    0.4950    7.9673   25.9213 N   0  0  0  0  0  0  0  0  0  0  0  0
   -0.3999    8.4075   26.2026 H   0  0  0  0  0  0  0  0  0  0  0  0
    1.1202    8.2133   26.7076 H   0  0  0  0  0  0  0  0  0  0  0  0
    1.4754    6.3820   22.6140 N   0  0  0  0  0  0  0  0  0  0  0  0
    1.6728    5.4634   22.1740 H   0  0  0  0  0  0  0  0  0  0  0  0
    2.8796   11.4381   23.2012 C   0  0  0  0  0  0  0  0  0  0  0  0
    6.5471   12.2507   23.8256 C   0  0  0  0  0  0  0  0  0  0  0  0
    5.3082   11.6008   23.6569 C   0  0  0  0  0  0  0  0  0  0  0  0
    4.0411   12.2462   23.7889 C   0  0  0  0  0  0  0  0  0  0  0  0
    4.0662   13.5495   24.2977 C   0  0  0  0  0  0  0  0  0  0  0  0
    5.3072   14.1825   24.5908 C   0  0  0  0  0  0  0  0  0  0  0  0
    6.5504   13.5814   24.2663 C   0  0  0  0  0  0  0  0  0  0  0  0
    2.5880   14.4278   24.5712 Cl  0  0  0  0  0  0  0  0  0  0  0  0
    7.9265   10.2566   23.4451 C   0  0  0  0  0  0  0  0  0  0  0  0
    7.7519   11.6581   23.5942 O   0  0  0  0  0  0  0  0  0  0  0  0
    7.6464   14.3951   24.4381 O   0  0  0  0  0  0  0  0  0  0  0  0
    8.4853   14.2593   25.5847 C   0  0  0  0  0  0  0  0  0  0  0  0
    5.3403   15.4658   25.1061 O   0  0  0  0  0  0  0  0  0  0  0  0
    4.9597   15.5115   26.4841 C   0  0  0  0  0  0  0  0  0  0  0  0
    0.3702   10.9992   25.1217 C   0  0  0  0  0  0  0  0  0  0  0  0
   -0.9643   10.7429   24.4037 C   0  0  0  0  0  0  0  0  0  0  0  0
   -1.5819   12.0101   23.8142 C   0  0  0  0  0  0  0  0  0  0  0  0
   -0.8258   12.4757   22.6358 C   0  0  0  0  0  0  0  0  0  0  0  0
   -0.2603   12.8337   21.6426 C   0  0  0  0  0  0  0  0  0  0  0  0
 26 27  1  0  0  0
 27 19  1  0  0  0
 19 20  2  0  0  0
 19 24  1  0  0  0
 20 21  1  0  0  0
 21 22  2  0  0  0
 21 18  1  0  0  0
 22 23  1  0  0  0
 22 25  1  0  0  0
 23 24  2  0  0  0
 23 30  1  0  0  0
 24 28  1  0  0  0
 28 29  1  0  0  0
 30 31  1  0  0  0
 18  1  1  0  0  0
  1  2  2  0  0  0
  1  7  1  0  0  0
  2  3  1  0  0  0
  3  4  1  0  0  0
  3  6  1  0  0  0
  4 10  1  0  0  0
  4 16  1  0  0  0
  5 10  1  0  0  0
  5 13  1  0  0  0
  6  7  1  0  0  0
  6 13  1  0  0  0
  7 32  1  0  0  0
 32 33  1  0  0  0
 33 34  1  0  0  0
 34 35  1  0  0  0
 35 36  3  0  0  0
  8 16  1  0  0  0
  9 16  1  0  0  0
 10 11  1  0  0  0
 10 12  1  0  0  0
 13 14  1  0  0  0
 13 15  1  0  0  0
 16 17  1  0  0  0
M  CHG 1  10   1
M  CHG 1  13   1
M  CHG 1  16   1
M  END
> <minimizedAffinity>
-8.64322

$$$$
ZINC03833892


 36 38  0  0  0  0  0  0  0  0999 V2000
    2.3741    9.9928   23.9534 C   0  0  0  0  0  0  0  0  0  0  0  0
    1.3867   10.1133   24.8460 N   0  0  0  0  0  0  0  0  0  0  0  0
    0.8736    8.7402   24.9463 C   0  0  0  0  0  0  0  0  0  0  0  0
    0.2136    8.3060   26.2387 C   0  0  0  0  0  0  0  0  0  0  0  0
    0.9049    5.9176   25.5183 C   0  0  0  0  0  0  0  0  0  0  0  0
    2.0829    7.8671   24.6854 C   0  0  0  0  0  0  0  0  0  0  0  0
    2.6540    8.6343   23.6264 N   0  0  0  0  0  0  0  0  0  0  0  0
    1.8471    8.2175   27.7064 H   0  0  0  0  0  0  0  0  0  0  0  0
    1.2509    9.6900   27.3178 H   0  0  0  0  0  0  0  0  0  0  0  0
   -0.0826    6.8443   26.1324 N   0  0  0  0  0  0  0  0  0  0  0  0
   -0.9501    6.7613   25.5656 H   0  0  0  0  0  0  0  0  0  0  0  0
   -0.4114    6.4474   27.0313 H   0  0  0  0  0  0  0  0  0  0  0  0
    1.6074    6.5295   24.3835 N   0  0  0  0  0  0  0  0  0  0  0  0
    2.4273    5.9397   24.1520 H   0  0  0  0  0  0  0  0  0  0  0  0
    1.0712    6.5214   23.4992 H   0  0  0  0  0  0  0  0  0  0  0  0
    0.9685    8.6893   27.4396 N   0  0  0  0  0  0  0  0  0  0  0  0
    0.3881    8.7405   28.2981 H   0  0  0  0  0  0  0  0  0  0  0  0
    2.9919   11.2169   23.2685 C   0  0  0  0  0  0  0  0  0  0  0  0
    6.6083   12.2616   23.8437 C   0  0  0  0  0  0  0  0  0  0  0  0
    5.4077   11.5361   23.7086 C   0  0  0  0  0  0  0  0  0  0  0  0
    4.1065   12.1148   23.8153 C   0  0  0  0  0  0  0  0  0  0  0  0
    4.0585   13.4392   24.2645 C   0  0  0  0  0  0  0  0  0  0  0  0
    5.2622   14.1534   24.5246 C   0  0  0  0  0  0  0  0  0  0  0  0
    6.5371   13.6090   24.2238 C   0  0  0  0  0  0  0  0  0  0  0  0
    2.5335   14.2446   24.5027 Cl  0  0  0  0  0  0  0  0  0  0  0  0
    8.0822   10.3417   23.4367 C   0  0  0  0  0  0  0  0  0  0  0  0
    7.8443   11.7276   23.6355 O   0  0  0  0  0  0  0  0  0  0  0  0
    7.5857   14.4899   24.3550 O   0  0  0  0  0  0  0  0  0  0  0  0
    8.4390   14.4457   25.4982 C   0  0  0  0  0  0  0  0  0  0  0  0
    5.2234   15.4587   24.9812 O   0  0  0  0  0  0  0  0  0  0  0  0
    4.8450   15.5452   26.3579 C   0  0  0  0  0  0  0  0  0  0  0  0
    3.8702    8.1662   22.9524 C   0  0  0  0  0  0  0  0  0  0  0  0
    4.9920    7.9795   23.9862 C   0  0  0  0  0  0  0  0  0  0  0  0
    5.7256    6.6469   23.8420 C   0  0  0  0  0  0  0  0  0  0  0  0
    6.0133    6.0490   25.1598 C   0  0  0  0  0  0  0  0  0  0  0  0
    6.3067    5.5536   26.2101 C   0  0  0  0  0  0  0  0  0  0  0  0
 26 27  1  0  0  0
 27 19  1  0  0  0
 19 20  2  0  0  0
 19 24  1  0  0  0
 20 21  1  0  0  0
 21 22  2  0  0  0
 21 18  1  0  0  0
 22 23  1  0  0  0
 22 25  1  0  0  0
 23 24  2  0  0  0
 23 30  1  0  0  0
 24 28  1  0  0  0
 28 29  1  0  0  0
 30 31  1  0  0  0
 18  1  1  0  0  0
  1  2  2  0  0  0
  1  7  1  0  0  0
  2  3  1  0  0  0
  3  4  1  0  0  0
  3  6  1  0  0  0
  4 10  1  0  0  0
  4 16  1  0  0  0
  5 10  1  0  0  0
  5 13  1  0  0  0
  6  7  1  0  0  0
  6 13  1  0  0  0
  7 32  1  0  0  0
 32 33  1  0  0  0
 33 34  1  0  0  0
 34 35  1  0  0  0
 35 36  3  0  0  0
  8 16  1  0  0  0
  9 16  1  0  0  0
 10 11  1  0  0  0
 10 12  1  0  0  0
 13 14  1  0  0  0
 13 15  1  0  0  0
 16 17  1  0  0  0
M  CHG 1  10   1
M  CHG 1  13   1
M  CHG 1  16   1
M  END
> <minimizedAffinity>
-7.69588

$$$$
ZINC03833892


 36 38  0  0  0  0  0  0  0  0999 V2000
    2.5886    9.9513   23.5711 C   0  0  0  0  0  0  0  0  0  0  0  0
    3.4628    9.0017   23.2246 N   0  0  0  0  0  0  0  0  0  0  0  0
    2.9443    7.8166   23.9214 C   0  0  0  0  0  0  0  0  0  0  0  0
    3.2323    6.4489   23.3374 C   0  0  0  0  0  0  0  0  0  0  0  0
    1.0901    5.7177   24.5932 C   0  0  0  0  0  0  0  0  0  0  0  0
    1.4465    8.0339   23.9687 C   0  0  0  0  0  0  0  0  0  0  0  0
    1.4601    9.4292   24.2671 N   0  0  0  0  0  0  0  0  0  0  0  0
    2.0464    6.3616   21.4891 H   0  0  0  0  0  0  0  0  0  0  0  0
    3.4413    7.2149   21.4598 H   0  0  0  0  0  0  0  0  0  0  0  0
    2.4800    5.4395   24.1440 N   0  0  0  0  0  0  0  0  0  0  0  0
    3.0373    5.2790   25.0068 H   0  0  0  0  0  0  0  0  0  0  0  0
    2.5202    4.4946   23.7206 H   0  0  0  0  0  0  0  0  0  0  0  0
    0.8978    7.1263   24.9596 N   0  0  0  0  0  0  0  0  0  0  0  0
   -0.1197    7.3071   25.0349 H   0  0  0  0  0  0  0  0  0  0  0  0
    1.2370    7.3679   25.9063 H   0  0  0  0  0  0  0  0  0  0  0  0
    2.9981    6.3692   21.8891 N   0  0  0  0  0  0  0  0  0  0  0  0
    3.5202    5.6027   21.4239 H   0  0  0  0  0  0  0  0  0  0  0  0
    2.8933   11.4388   23.3618 C   0  0  0  0  0  0  0  0  0  0  0  0
    6.6275   12.0918   23.7225 C   0  0  0  0  0  0  0  0  0  0  0  0
    5.3517   11.4973   23.6529 C   0  0  0  0  0  0  0  0  0  0  0  0
    4.1270   12.2049   23.8502 C   0  0  0  0  0  0  0  0  0  0  0  0
    4.2453   13.5174   24.3209 C   0  0  0  0  0  0  0  0  0  0  0  0
    5.5307   14.0978   24.5149 C   0  0  0  0  0  0  0  0  0  0  0  0
    6.7208   13.4310   24.1260 C   0  0  0  0  0  0  0  0  0  0  0  0
    2.8302   14.4708   24.6668 Cl  0  0  0  0  0  0  0  0  0  0  0  0
    7.8626   10.0415   23.1797 C   0  0  0  0  0  0  0  0  0  0  0  0
    7.7858   11.4375   23.4288 O   0  0  0  0  0  0  0  0  0  0  0  0
    7.8617   14.1959   24.2036 O   0  0  0  0  0  0  0  0  0  0  0  0
    8.6798   14.1722   25.3729 C   0  0  0  0  0  0  0  0  0  0  0  0
    5.6565   15.3901   24.9921 O   0  0  0  0  0  0  0  0  0  0  0  0
    5.2966   15.5007   26.3720 C   0  0  0  0  0  0  0  0  0  0  0  0
    0.1988   10.1477   24.4804 C   0  0  0  0  0  0  0  0  0  0  0  0
    0.2366   10.8610   25.8412 C   0  0  0  0  0  0  0  0  0  0  0  0
   -0.7492   10.2776   26.8524 C   0  0  0  0  0  0  0  0  0  0  0  0
   -0.1359    9.1816   27.6267 C   0  0  0  0  0  0  0  0  0  0  0  0
    0.3926    8.2739   28.2022 C   0  0  0  0  0  0  0  0  0  0  0  0
 26 27  1  0  0  0
 27 19  1  0  0  0
 19 20  2  0  0  0
 19 24  1  0  0  0
 20 21  1  0  0  0
 21 22  2  0  0  0
 21 18  1  0  0  0
 22 23  1  0  0  0
 22 25  1  0  0  0
 23 24  2  0  0  0
 23 30  1  0  0  0
 24 28  1  0  0  0
 28 29  1  0  0  0
 30 31  1  0  0  0
 18  1  1  0  0  0
  1  2  2  0  0  0
  1  7  1  0  0  0
  2  3  1  0  0  0
  3  4  1  0  0  0
  3  6  1  0  0  0
  4 10  1  0  0  0
  4 16  1  0  0  0
  5 10  1  0  0  0
  5 13  1  0  0  0
  6  7  1  0  0  0
  6 13  1  0  0  0
  7 32  1  0  0  0
 32 33  1  0  0  0
 33 34  1  0  0  0
 34 35  1  0  0  0
 35 36  3  0  0  0
  8 16  1  0  0  0
  9 16  1  0  0  0
 10 11  1  0  0  0
 10 12  1  0  0  0
 13 14  1  0  0  0
 13 15  1  0  0  0
 16 17  1  0  0  0
M  CHG 1  10   1
M  CHG 1  13   1
M  CHG 1  16   1
M  END
> <minimizedAffinity>
-7.52642

$$$$
