ZINC00067591


 26 27  0  0  0  0  0  0  0  0999 V2000
    7.3590   12.3661   23.6178 N   0  0  0  0  0  0  0  0  0  0  0  0
    8.2783   12.6668   23.5515 H   0  0  0  0  0  0  0  0  0  0  0  0
    6.3763   13.2274   24.1183 C   0  0  0  0  0  0  0  0  0  0  0  0
    5.0338   12.8967   23.9923 C   0  0  0  0  0  0  0  0  0  0  0  0
    4.0624   13.7529   24.4894 C   0  0  0  0  0  0  0  0  0  0  0  0
    4.4354   14.9416   25.1060 C   0  0  0  0  0  0  0  0  0  0  0  0
    5.7720   15.2639   25.2343 C   0  0  0  0  0  0  0  0  0  0  0  0
    6.7421   14.4135   24.7405 C   0  0  0  0  0  0  0  0  0  0  0  0
    8.1998   14.7722   24.8787 C   0  0  0  0  0  0  0  0  0  0  0  0
    2.7110   13.4241   24.3646 N   0  0  0  0  0  0  0  0  0  0  0  0
    2.0335   14.1114   24.4622 H   0  0  0  0  0  0  0  0  0  0  0  0
    2.2644   11.8611   24.0498 S   0  0  0  0  0  0  0  0  0  0  0  0
    2.8910   11.0924   25.0675 O   0  0  0  0  0  0  0  0  0  0  0  0
    2.5930   11.6585   22.6819 O   0  0  0  0  0  0  0  0  0  0  0  0
    0.4633   11.8387   24.2682 C   0  0  0  0  0  0  0  0  0  0  0  0
    7.0277   11.1185   23.2294 C   0  0  0  0  0  0  0  0  0  0  0  0
    7.2156   10.6535   21.5931 S   0  0  0  0  0  0  0  0  0  0  0  0
    6.5502   10.2377   24.1305 N   0  0  0  0  0  0  0  0  0  0  0  0
    6.0186   10.5490   24.8795 H   0  0  0  0  0  0  0  0  0  0  0  0
    4.3578    8.4714   23.7178 C   0  0  0  0  0  0  0  0  0  0  0  0
    5.7792    7.9749   23.7818 C   0  0  0  0  0  0  0  0  0  0  0  0
    6.0487    6.6286   23.6390 C   0  0  0  0  0  0  0  0  0  0  0  0
    7.3521    6.1726   23.6976 C   0  0  0  0  0  0  0  0  0  0  0  0
    8.3918    7.0631   23.8995 C   0  0  0  0  0  0  0  0  0  0  0  0
    8.1292    8.4121   24.0379 C   0  0  0  0  0  0  0  0  0  0  0  0
    6.8204    8.8724   23.9846 C   0  0  0  0  0  0  0  0  0  0  0  0
 20 21  1  0  0  0
 21 22  2  0  0  0
 21 26  1  0  0  0
 22 23  1  0  0  0
 23 24  2  0  0  0
 24 25  1  0  0  0
 25 26  2  0  0  0
 26 18  1  0  0  0
 18 16  1  0  0  0
 18 19  1  0  0  0
 16 17  2  0  0  0
 16  1  1  0  0  0
  1  3  1  0  0  0
  1  2  1  0  0  0
  3  4  2  0  0  0
  3  8  1  0  0  0
  4  5  1  0  0  0
  5  6  2  0  0  0
  5 10  1  0  0  0
  6  7  1  0  0  0
  7  8  2  0  0  0
  8  9  1  0  0  0
 10 12  1  0  0  0
 10 11  1  0  0  0
 12 13  2  0  0  0
 12 14  2  0  0  0
 12 15  1  0  0  0
M  END
> <minimizedAffinity>
-9.08624

$$$$
ZINC00067591


 26 27  0  0  0  0  0  0  0  0999 V2000
    7.1592   10.2158   24.2022 N   0  0  0  0  0  0  0  0  0  0  0  0
    7.7346   10.2530   24.9816 H   0  0  0  0  0  0  0  0  0  0  0  0
    6.1913    9.2108   24.0953 C   0  0  0  0  0  0  0  0  0  0  0  0
    4.8471    9.5478   24.0103 C   0  0  0  0  0  0  0  0  0  0  0  0
    3.8904    8.5491   23.9046 C   0  0  0  0  0  0  0  0  0  0  0  0
    4.2796    7.2147   23.8908 C   0  0  0  0  0  0  0  0  0  0  0  0
    5.6179    6.8841   23.9699 C   0  0  0  0  0  0  0  0  0  0  0  0
    6.5735    7.8762   24.0751 C   0  0  0  0  0  0  0  0  0  0  0  0
    8.0330    7.5100   24.1661 C   0  0  0  0  0  0  0  0  0  0  0  0
    2.5374    8.8838   23.8189 N   0  0  0  0  0  0  0  0  0  0  0  0
    2.0182    8.6108   23.0464 H   0  0  0  0  0  0  0  0  0  0  0  0
    1.8189    9.7465   25.0358 S   0  0  0  0  0  0  0  0  0  0  0  0
    1.9073   11.1026   24.6207 O   0  0  0  0  0  0  0  0  0  0  0  0
    2.4662    9.3077   26.2226 O   0  0  0  0  0  0  0  0  0  0  0  0
    0.0878    9.2027   25.0323 C   0  0  0  0  0  0  0  0  0  0  0  0
    7.2921   11.1307   23.2212 C   0  0  0  0  0  0  0  0  0  0  0  0
    7.1188   10.6617   21.5845 S   0  0  0  0  0  0  0  0  0  0  0  0
    7.5598   12.4147   23.5304 N   0  0  0  0  0  0  0  0  0  0  0  0
    8.4460   12.7769   23.3757 H   0  0  0  0  0  0  0  0  0  0  0  0
    8.3346   14.8539   24.7741 C   0  0  0  0  0  0  0  0  0  0  0  0
    6.8921   14.4259   24.6903 C   0  0  0  0  0  0  0  0  0  0  0  0
    5.9015   15.2243   25.2258 C   0  0  0  0  0  0  0  0  0  0  0  0
    4.5783   14.8324   25.1492 C   0  0  0  0  0  0  0  0  0  0  0  0
    4.2412   13.6387   24.5358 C   0  0  0  0  0  0  0  0  0  0  0  0
    5.2272   12.8379   23.9933 C   0  0  0  0  0  0  0  0  0  0  0  0
    6.5578   13.2267   24.0734 C   0  0  0  0  0  0  0  0  0  0  0  0
 20 21  1  0  0  0
 21 22  2  0  0  0
 21 26  1  0  0  0
 22 23  1  0  0  0
 23 24  2  0  0  0
 24 25  1  0  0  0
 25 26  2  0  0  0
 26 18  1  0  0  0
 18 16  1  0  0  0
 18 19  1  0  0  0
 16 17  2  0  0  0
 16  1  1  0  0  0
  1  3  1  0  0  0
  1  2  1  0  0  0
  3  4  2  0  0  0
  3  8  1  0  0  0
  4  5  1  0  0  0
  5  6  2  0  0  0
  5 10  1  0  0  0
  6  7  1  0  0  0
  7  8  2  0  0  0
  8  9  1  0  0  0
 10 12  1  0  0  0
 10 11  1  0  0  0
 12 13  2  0  0  0
 12 14  2  0  0  0
 12 15  1  0  0  0
M  END
> <minimizedAffinity>
-8.91733

$$$$
ZINC00067591


 26 27  0  0  0  0  0  0  0  0999 V2000
    5.3373   11.5713   23.3615 N   0  0  0  0  0  0  0  0  0  0  0  0
    4.4366   11.4759   23.0157 H   0  0  0  0  0  0  0  0  0  0  0  0
    5.7269   12.7663   23.9766 C   0  0  0  0  0  0  0  0  0  0  0  0
    7.0742   13.0820   24.0892 C   0  0  0  0  0  0  0  0  0  0  0  0
    7.4568   14.2673   24.6996 C   0  0  0  0  0  0  0  0  0  0  0  0
    6.4911   15.1317   25.2022 C   0  0  0  0  0  0  0  0  0  0  0  0
    5.1520   14.8165   25.0831 C   0  0  0  0  0  0  0  0  0  0  0  0
    4.7673   13.6370   24.4756 C   0  0  0  0  0  0  0  0  0  0  0  0
    3.3043   13.2951   24.3523 C   0  0  0  0  0  0  0  0  0  0  0  0
    8.8108   14.5885   24.8150 N   0  0  0  0  0  0  0  0  0  0  0  0
    9.2199   15.1999   24.1827 H   0  0  0  0  0  0  0  0  0  0  0  0
    9.7186   13.9261   26.0309 S   0  0  0  0  0  0  0  0  0  0  0  0
   10.2821   12.7510   25.4646 O   0  0  0  0  0  0  0  0  0  0  0  0
    8.8342   13.8441   27.1404 O   0  0  0  0  0  0  0  0  0  0  0  0
   11.0192   15.1480   26.3593 C   0  0  0  0  0  0  0  0  0  0  0  0
    6.2144   10.5540   23.2487 C   0  0  0  0  0  0  0  0  0  0  0  0
    7.2502   10.4640   21.8893 S   0  0  0  0  0  0  0  0  0  0  0  0
    6.2761    9.6093   24.2077 N   0  0  0  0  0  0  0  0  0  0  0  0
    6.5585    9.8456   25.1048 H   0  0  0  0  0  0  0  0  0  0  0  0
    8.2999    7.6178   24.3958 C   0  0  0  0  0  0  0  0  0  0  0  0
    6.8884    7.2827   23.9877 C   0  0  0  0  0  0  0  0  0  0  0  0
    6.5451    5.9788   23.6918 C   0  0  0  0  0  0  0  0  0  0  0  0
    5.2508    5.6708   23.3175 C   0  0  0  0  0  0  0  0  0  0  0  0
    4.2942    6.6675   23.2378 C   0  0  0  0  0  0  0  0  0  0  0  0
    4.6301    7.9733   23.5378 C   0  0  0  0  0  0  0  0  0  0  0  0
    5.9309    8.2864   23.9091 C   0  0  0  0  0  0  0  0  0  0  0  0
 20 21  1  0  0  0
 21 22  2  0  0  0
 21 26  1  0  0  0
 22 23  1  0  0  0
 23 24  2  0  0  0
 24 25  1  0  0  0
 25 26  2  0  0  0
 26 18  1  0  0  0
 18 16  1  0  0  0
 18 19  1  0  0  0
 16 17  2  0  0  0
 16  1  1  0  0  0
  1  3  1  0  0  0
  1  2  1  0  0  0
  3  4  2  0  0  0
  3  8  1  0  0  0
  4  5  1  0  0  0
  5  6  2  0  0  0
  5 10  1  0  0  0
  6  7  1  0  0  0
  7  8  2  0  0  0
  8  9  1  0  0  0
 10 12  1  0  0  0
 10 11  1  0  0  0
 12 13  2  0  0  0
 12 14  2  0  0  0
 12 15  1  0  0  0
M  END
> <minimizedAffinity>
-8.83788

$$$$
