ZINC00067591
 OpenBabel07192215303D

 26 27  0  0  0  0  0  0  0  0999 V2000
    7.3590   12.3661   23.6178 N   0  0  0  0  0  0  0  0  0  0  0  0
    8.2783   12.6668   23.5515 H   0  0  0  0  0  0  0  0  0  0  0  0
    6.3763   13.2274   24.1183 C   0  0  0  0  0  0  0  0  0  0  0  0
    5.0338   12.8967   23.9923 C   0  0  0  0  0  0  0  0  0  0  0  0
    4.0624   13.7529   24.4894 C   0  0  0  0  0  0  0  0  0  0  0  0
    4.4354   14.9416   25.1060 C   0  0  0  0  0  0  0  0  0  0  0  0
    5.7720   15.2639   25.2343 C   0  0  0  0  0  0  0  0  0  0  0  0
    6.7421   14.4135   24.7405 C   0  0  0  0  0  0  0  0  0  0  0  0
    8.1998   14.7722   24.8787 C   0  0  0  0  0  0  0  0  0  0  0  0
    2.7110   13.4241   24.3646 N   0  0  0  0  0  0  0  0  0  0  0  0
    2.0335   14.1114   24.4622 H   0  0  0  0  0  0  0  0  0  0  0  0
    2.2644   11.8611   24.0498 S   0  0  0  0  0  0  0  0  0  0  0  0
    2.8910   11.0924   25.0675 O   0  0  0  0  0  0  0  0  0  0  0  0
    2.5930   11.6585   22.6819 O   0  0  0  0  0  0  0  0  0  0  0  0
    0.4633   11.8387   24.2682 C   0  0  0  0  0  0  0  0  0  0  0  0
    7.0277   11.1185   23.2294 C   0  0  0  0  0  0  0  0  0  0  0  0
    7.2156   10.6535   21.5931 S   0  0  0  0  0  0  0  0  0  0  0  0
    6.5502   10.2377   24.1305 N   0  0  0  0  0  0  0  0  0  0  0  0
    6.0186   10.5490   24.8795 H   0  0  0  0  0  0  0  0  0  0  0  0
    4.3578    8.4714   23.7178 C   0  0  0  0  0  0  0  0  0  0  0  0
    5.7792    7.9749   23.7818 C   0  0  0  0  0  0  0  0  0  0  0  0
    6.0487    6.6286   23.6390 C   0  0  0  0  0  0  0  0  0  0  0  0
    7.3521    6.1726   23.6976 C   0  0  0  0  0  0  0  0  0  0  0  0
    8.3918    7.0631   23.8995 C   0  0  0  0  0  0  0  0  0  0  0  0
    8.1292    8.4121   24.0379 C   0  0  0  0  0  0  0  0  0  0  0  0
    6.8204    8.8724   23.9846 C   0  0  0  0  0  0  0  0  0  0  0  0
  1  3  1  0  0  0  0
  1  2  1  0  0  0  0
  3  4  2  0  0  0  0
  3  8  1  0  0  0  0
  4  5  1  0  0  0  0
  5  6  2  0  0  0  0
  5 10  1  0  0  0  0
  6  7  1  0  0  0  0
  7  8  2  0  0  0  0
  8  9  1  0  0  0  0
 10 12  1  0  0  0  0
 10 11  1  0  0  0  0
 12 13  2  0  0  0  0
 12 14  2  0  0  0  0
 12 15  1  0  0  0  0
 16 17  2  0  0  0  0
 16  1  1  0  0  0  0
 18 16  1  0  0  0  0
 18 19  1  0  0  0  0
 20 21  1  0  0  0  0
 21 22  2  0  0  0  0
 21 26  1  0  0  0  0
 22 23  1  0  0  0  0
 23 24  2  0  0  0  0
 24 25  1  0  0  0  0
 25 26  2  0  0  0  0
 26 18  1  0  0  0  0
M  END
>  <minimizedAffinity>
-9.08624

$$$$
