ZINC03832018
 OpenBabel07192215303D

 27 29  0  0  0  0  0  0  0  0999 V2000
    6.2544   11.7239   23.3664 N   0  0  0  0  0  0  0  0  0  0  0  0
    4.9110   11.6041   23.5645 C   0  0  0  0  0  0  0  0  0  0  0  0
    4.4539   12.6635   24.1676 N   0  0  0  0  0  0  0  0  0  0  0  0
    5.4713   13.5297   24.3888 C   0  0  0  0  0  0  0  0  0  0  0  0
    6.6381   12.9396   23.8741 C   0  0  0  0  0  0  0  0  0  0  0  0
    7.7896   13.5959   23.9684 N   0  0  0  0  0  0  0  0  0  0  0  0
    7.8405   14.7839   24.5340 C   0  0  0  0  0  0  0  0  0  0  0  0
    6.7725   15.3784   25.0315 N   0  0  0  0  0  0  0  0  0  0  0  0
    5.5772   14.7989   24.9837 C   0  0  0  0  0  0  0  0  0  0  0  0
    4.4619   15.4308   25.5070 N   0  0  0  0  0  0  0  0  0  0  0  0
    3.7849   15.5661   24.7830 H   0  0  0  0  0  0  0  0  0  0  0  0
    4.5474   16.3061   25.9150 H   0  0  0  0  0  0  0  0  0  0  0  0
    7.1280   10.7372   22.7269 C   0  0  0  0  0  0  0  0  0  0  0  0
    7.9047    9.9731   23.8007 C   0  0  0  0  0  0  0  0  0  0  0  0
    8.3406    7.5145   23.9083 C   0  0  0  0  0  0  0  0  0  0  0  0
    7.2659    8.5987   24.0114 C   0  0  0  0  0  0  0  0  0  0  0  0
    4.0788   10.4171   23.1523 C   0  0  0  0  0  0  0  0  0  0  0  0
    2.8608   10.3274   24.0341 C   0  0  0  0  0  0  0  0  0  0  0  0
    2.8967    9.5635   25.1849 C   0  0  0  0  0  0  0  0  0  0  0  0
    1.7757    9.4808   25.9971 C   0  0  0  0  0  0  0  0  0  0  0  0
    0.6180   10.1648   25.6542 C   0  0  0  0  0  0  0  0  0  0  0  0
    0.5844   10.9314   24.5061 C   0  0  0  0  0  0  0  0  0  0  0  0
    1.7040   11.0099   23.6915 C   0  0  0  0  0  0  0  0  0  0  0  0
    1.6688   11.7607   22.5581 O   0  0  0  0  0  0  0  0  0  0  0  0
    0.6591   12.7702   22.4795 C   0  0  0  0  0  0  0  0  0  0  0  0
    1.8108    8.7300   27.1304 O   0  0  0  0  0  0  0  0  0  0  0  0
    0.5548    8.3265   27.6809 C   0  0  0  0  0  0  0  0  0  0  0  0
  1  2  1  0  0  0  0
  1  5  1  0  0  0  0
  2  3  2  0  0  0  0
  2 17  1  0  0  0  0
  3  4  1  0  0  0  0
  4  5  2  0  0  0  0
  4  9  1  0  0  0  0
  5  6  1  0  0  0  0
  6  7  2  0  0  0  0
  7  8  1  0  0  0  0
  8  9  2  0  0  0  0
  9 10  1  0  0  0  0
 10 11  1  0  0  0  0
 10 12  1  0  0  0  0
 13  1  1  0  0  0  0
 14 13  1  0  0  0  0
 15 16  1  0  0  0  0
 16 14  1  0  0  0  0
 17 18  1  0  0  0  0
 18 19  2  0  0  0  0
 18 23  1  0  0  0  0
 19 20  1  0  0  0  0
 20 21  2  0  0  0  0
 20 26  1  0  0  0  0
 21 22  1  0  0  0  0
 22 23  2  0  0  0  0
 23 24  1  0  0  0  0
 24 25  1  0  0  0  0
 26 27  1  0  0  0  0
M  END
>  <minimizedAffinity>
-9.32189

$$$$
