ZINC03832016


 25 27  0  0  0  0  0  0  0  0999 V2000
    5.8384   11.8703   23.5118 N   0  0  0  0  0  0  0  0  0  0  0  0
    4.5123   11.9282   23.8204 C   0  0  0  0  0  0  0  0  0  0  0  0
    4.2479   13.0448   24.4366 N   0  0  0  0  0  0  0  0  0  0  0  0
    5.3831   13.7760   24.5524 C   0  0  0  0  0  0  0  0  0  0  0  0
    6.4176   13.0304   23.9600 C   0  0  0  0  0  0  0  0  0  0  0  0
    7.6469   13.5346   23.9426 N   0  0  0  0  0  0  0  0  0  0  0  0
    7.8965   14.7136   24.4709 C   0  0  0  0  0  0  0  0  0  0  0  0
    6.9583   15.4491   25.0375 N   0  0  0  0  0  0  0  0  0  0  0  0
    5.6995   15.0284   25.1025 C   0  0  0  0  0  0  0  0  0  0  0  0
    4.7228   15.8071   25.6992 N   0  0  0  0  0  0  0  0  0  0  0  0
    4.9649   15.9707   26.6560 H   0  0  0  0  0  0  0  0  0  0  0  0
    3.8070   15.4888   25.7402 H   0  0  0  0  0  0  0  0  0  0  0  0
    6.5200   10.7729   22.8217 C   0  0  0  0  0  0  0  0  0  0  0  0
    7.9592    7.6665   24.5587 C   0  0  0  0  0  0  0  0  0  0  0  0
    7.2301    8.5689   23.5967 C   0  0  0  0  0  0  0  0  0  0  0  0
    7.1499    9.8546   23.8370 C   0  0  0  0  0  0  0  0  0  0  0  0
    3.5024   10.8574   23.5005 C   0  0  0  0  0  0  0  0  0  0  0  0
    2.1149   11.4433   23.5543 C   0  0  0  0  0  0  0  0  0  0  0  0
    1.6675   12.2555   22.5282 C   0  0  0  0  0  0  0  0  0  0  0  0
    0.3949   12.7944   22.5740 C   0  0  0  0  0  0  0  0  0  0  0  0
   -0.4332   12.5229   23.6465 C   0  0  0  0  0  0  0  0  0  0  0  0
    0.0134   11.7081   24.6767 C   0  0  0  0  0  0  0  0  0  0  0  0
    1.2888   11.1642   24.6263 C   0  0  0  0  0  0  0  0  0  0  0  0
   -0.7998   11.4391   25.7319 O   0  0  0  0  0  0  0  0  0  0  0  0
   -0.4541   10.3198   26.5494 C   0  0  0  0  0  0  0  0  0  0  0  0
 14 15  1  0  0  0
 15 16  2  0  0  0
 16 13  1  0  0  0
 13  1  1  0  0  0
  1  2  1  0  0  0
  1  5  1  0  0  0
  2  3  2  0  0  0
  2 17  1  0  0  0
  3  4  1  0  0  0
  4  5  2  0  0  0
  4  9  1  0  0  0
  5  6  1  0  0  0
  6  7  2  0  0  0
  7  8  1  0  0  0
  8  9  2  0  0  0
  9 10  1  0  0  0
 10 11  1  0  0  0
 10 12  1  0  0  0
 17 18  1  0  0  0
 18 19  2  0  0  0
 18 23  1  0  0  0
 19 20  1  0  0  0
 20 21  2  0  0  0
 21 22  1  0  0  0
 22 23  2  0  0  0
 22 24  1  0  0  0
 24 25  1  0  0  0
M  END
> <minimizedAffinity>
-9.62996

$$$$
ZINC03832016


 25 27  0  0  0  0  0  0  0  0999 V2000
    6.1536   11.8319   23.4170 N   0  0  0  0  0  0  0  0  0  0  0  0
    4.8085   11.7950   23.6328 C   0  0  0  0  0  0  0  0  0  0  0  0
    4.4290   12.8733   24.2568 N   0  0  0  0  0  0  0  0  0  0  0  0
    5.5024   13.6724   24.4708 C   0  0  0  0  0  0  0  0  0  0  0  0
    6.6223   13.0130   23.9340 C   0  0  0  0  0  0  0  0  0  0  0  0
    7.8138   13.5957   24.0160 N   0  0  0  0  0  0  0  0  0  0  0  0
    7.9478   14.7720   24.5903 C   0  0  0  0  0  0  0  0  0  0  0  0
    6.9262   15.4283   25.1078 N   0  0  0  0  0  0  0  0  0  0  0  0
    5.6966   14.9256   25.0733 C   0  0  0  0  0  0  0  0  0  0  0  0
    4.6317   15.6216   25.6192 N   0  0  0  0  0  0  0  0  0  0  0  0
    4.7962   15.7719   26.5946 H   0  0  0  0  0  0  0  0  0  0  0  0
    3.7384   15.2439   25.5875 H   0  0  0  0  0  0  0  0  0  0  0  0
    6.9522   10.8017   22.7491 C   0  0  0  0  0  0  0  0  0  0  0  0
    7.9350    7.5847   24.5991 C   0  0  0  0  0  0  0  0  0  0  0  0
    7.2989    8.5530   23.6352 C   0  0  0  0  0  0  0  0  0  0  0  0
    7.4940    9.8412   23.7760 C   0  0  0  0  0  0  0  0  0  0  0  0
    3.8962   10.6714   23.2155 C   0  0  0  0  0  0  0  0  0  0  0  0
    2.5224   10.8995   23.7916 C   0  0  0  0  0  0  0  0  0  0  0  0
    2.1279   10.2182   24.9287 C   0  0  0  0  0  0  0  0  0  0  0  0
    0.8684   10.4255   25.4602 C   0  0  0  0  0  0  0  0  0  0  0  0
   -0.0002   11.3141   24.8553 C   0  0  0  0  0  0  0  0  0  0  0  0
    0.3935   11.9989   23.7149 C   0  0  0  0  0  0  0  0  0  0  0  0
    1.6597   11.7934   23.1861 C   0  0  0  0  0  0  0  0  0  0  0  0
   -0.4588   12.8739   23.1192 O   0  0  0  0  0  0  0  0  0  0  0  0
   -1.7552   12.3838   22.7727 C   0  0  0  0  0  0  0  0  0  0  0  0
 14 15  1  0  0  0
 15 16  2  0  0  0
 16 13  1  0  0  0
 13  1  1  0  0  0
  1  2  1  0  0  0
  1  5  1  0  0  0
  2  3  2  0  0  0
  2 17  1  0  0  0
  3  4  1  0  0  0
  4  5  2  0  0  0
  4  9  1  0  0  0
  5  6  1  0  0  0
  6  7  2  0  0  0
  7  8  1  0  0  0
  8  9  2  0  0  0
  9 10  1  0  0  0
 10 11  1  0  0  0
 10 12  1  0  0  0
 17 18  1  0  0  0
 18 19  2  0  0  0
 18 23  1  0  0  0
 19 20  1  0  0  0
 20 21  2  0  0  0
 21 22  1  0  0  0
 22 23  2  0  0  0
 22 24  1  0  0  0
 24 25  1  0  0  0
M  END
> <minimizedAffinity>
-9.45737

$$$$
ZINC03832016


 25 27  0  0  0  0  0  0  0  0999 V2000
    5.3444   11.8426   23.4699 N   0  0  0  0  0  0  0  0  0  0  0  0
    6.5381   11.3629   23.0203 C   0  0  0  0  0  0  0  0  0  0  0  0
    7.4989   12.1747   23.3583 N   0  0  0  0  0  0  0  0  0  0  0  0
    6.9843   13.2183   24.0531 C   0  0  0  0  0  0  0  0  0  0  0  0
    5.5949   13.0172   24.1328 C   0  0  0  0  0  0  0  0  0  0  0  0
    4.8499   13.9123   24.7729 N   0  0  0  0  0  0  0  0  0  0  0  0
    5.4003   14.9722   25.3251 C   0  0  0  0  0  0  0  0  0  0  0  0
    6.6990   15.2030   25.2761 N   0  0  0  0  0  0  0  0  0  0  0  0
    7.5241   14.3645   24.6581 C   0  0  0  0  0  0  0  0  0  0  0  0
    8.8848   14.6155   24.6119 N   0  0  0  0  0  0  0  0  0  0  0  0
    9.0475   15.4878   24.1497 H   0  0  0  0  0  0  0  0  0  0  0  0
    9.4770   13.9954   24.1578 H   0  0  0  0  0  0  0  0  0  0  0  0
    4.0339   11.2154   23.2848 C   0  0  0  0  0  0  0  0  0  0  0  0
    2.3981    9.0190   25.9751 C   0  0  0  0  0  0  0  0  0  0  0  0
    2.8021    9.6066   24.6474 C   0  0  0  0  0  0  0  0  0  0  0  0
    3.5359   10.6916   24.6070 C   0  0  0  0  0  0  0  0  0  0  0  0
    6.7194   10.0852   22.2434 C   0  0  0  0  0  0  0  0  0  0  0  0
    6.8399    8.9277   23.2011 C   0  0  0  0  0  0  0  0  0  0  0  0
    8.0068    8.7446   23.9205 C   0  0  0  0  0  0  0  0  0  0  0  0
    8.1205    7.6840   24.8004 C   0  0  0  0  0  0  0  0  0  0  0  0
    7.0678    6.8035   24.9624 C   0  0  0  0  0  0  0  0  0  0  0  0
    5.8962    6.9855   24.2421 C   0  0  0  0  0  0  0  0  0  0  0  0
    5.7821    8.0533   23.3636 C   0  0  0  0  0  0  0  0  0  0  0  0
    4.8594    6.1213   24.4008 O   0  0  0  0  0  0  0  0  0  0  0  0
    3.9137    6.0386   23.3333 C   0  0  0  0  0  0  0  0  0  0  0  0
 14 15  1  0  0  0
 15 16  2  0  0  0
 16 13  1  0  0  0
 13  1  1  0  0  0
  1  2  1  0  0  0
  1  5  1  0  0  0
  2  3  2  0  0  0
  2 17  1  0  0  0
  3  4  1  0  0  0
  4  5  2  0  0  0
  4  9  1  0  0  0
  5  6  1  0  0  0
  6  7  2  0  0  0
  7  8  1  0  0  0
  8  9  2  0  0  0
  9 10  1  0  0  0
 10 11  1  0  0  0
 10 12  1  0  0  0
 17 18  1  0  0  0
 18 19  2  0  0  0
 18 23  1  0  0  0
 19 20  1  0  0  0
 20 21  2  0  0  0
 21 22  1  0  0  0
 22 23  2  0  0  0
 22 24  1  0  0  0
 24 25  1  0  0  0
M  END
> <minimizedAffinity>
-9.20388

$$$$
