ZINC00038397


 26 27  0  0  0  0  0  0  0  0999 V2000
    4.8934   10.2775   23.4311 N   0  0  0  0  0  0  0  0  0  0  0  0
    6.1533   10.0090   23.8276 C   0  0  0  0  0  0  0  0  0  0  0  0
    6.4041    8.9576   24.3780 O   0  0  0  0  0  0  0  0  0  0  0  0
    4.6919   11.1179   22.9918 H   0  0  0  0  0  0  0  0  0  0  0  0
    2.0671    6.1457   22.6765 C   0  0  0  0  0  0  0  0  0  0  0  0
    2.4759    7.4120   23.3850 C   0  0  0  0  0  0  0  0  0  0  0  0
    1.8137    7.8535   24.4693 C   0  0  0  0  0  0  0  0  0  0  0  0
    2.6875    9.3442   24.9037 S   0  0  0  0  0  0  0  0  0  0  0  0
    3.8848    9.3519   23.6524 C   0  0  0  0  0  0  0  0  0  0  0  0
    3.5940    8.2019   22.9270 C   0  0  0  0  0  0  0  0  0  0  0  0
    0.6237    7.2344   25.1555 C   0  0  0  0  0  0  0  0  0  0  0  0
    4.3831    7.8114   21.7554 C   0  0  0  0  0  0  0  0  0  0  0  0
    4.4855    8.5708   20.8100 O   0  0  0  0  0  0  0  0  0  0  0  0
    4.9943    6.6102   21.7242 N   0  0  0  0  0  0  0  0  0  0  0  0
    4.9126    6.0045   22.4771 H   0  0  0  0  0  0  0  0  0  0  0  0
    5.5165    6.3519   20.9490 H   0  0  0  0  0  0  0  0  0  0  0  0
    7.2498   11.0144   23.5878 C   0  0  0  0  0  0  0  0  0  0  0  0
    6.6857   12.2187   23.0658 O   0  0  0  0  0  0  0  0  0  0  0  0
    6.4594   13.2279   23.9496 C   0  0  0  0  0  0  0  0  0  0  0  0
    7.5246   13.9419   24.4760 C   0  0  0  0  0  0  0  0  0  0  0  0
    7.2928   14.9678   25.3730 C   0  0  0  0  0  0  0  0  0  0  0  0
    6.0000   15.2844   25.7472 C   0  0  0  0  0  0  0  0  0  0  0  0
    4.9332   14.5797   25.2221 C   0  0  0  0  0  0  0  0  0  0  0  0
    5.1591   13.5458   24.3268 C   0  0  0  0  0  0  0  0  0  0  0  0
    4.1104   12.8485   23.8131 O   0  0  0  0  0  0  0  0  0  0  0  0
    2.8107   13.1693   24.3122 C   0  0  0  0  0  0  0  0  0  0  0  0
  5  6  1  0  0  0
  6  7  2  0  0  0
  6 10  1  0  0  0
  7  8  1  0  0  0
  7 11  1  0  0  0
  8  9  1  0  0  0
  9 10  2  0  0  0
  9  1  1  0  0  0
 10 12  1  0  0  0
 12 13  2  0  0  0
 12 14  1  0  0  0
 14 15  1  0  0  0
 14 16  1  0  0  0
  1  2  1  0  0  0
  1  4  1  0  0  0
  2  3  2  0  0  0
  2 17  1  0  0  0
 17 18  1  0  0  0
 18 19  1  0  0  0
 19 20  2  0  0  0
 19 24  1  0  0  0
 20 21  1  0  0  0
 21 22  2  0  0  0
 22 23  1  0  0  0
 23 24  2  0  0  0
 24 25  1  0  0  0
 25 26  1  0  0  0
M  END
> <minimizedAffinity>
-7.72050

$$$$
ZINC00038397


 26 27  0  0  0  0  0  0  0  0999 V2000
    5.3529   10.2471   23.0143 N   0  0  0  0  0  0  0  0  0  0  0  0
    6.5048   10.1593   23.7085 C   0  0  0  0  0  0  0  0  0  0  0  0
    6.7670    9.1460   24.3215 O   0  0  0  0  0  0  0  0  0  0  0  0
    5.1422   11.0569   22.5247 H   0  0  0  0  0  0  0  0  0  0  0  0
    1.1784    7.5973   24.1010 C   0  0  0  0  0  0  0  0  0  0  0  0
    2.5195    7.8312   23.4535 C   0  0  0  0  0  0  0  0  0  0  0  0
    3.0954    6.8962   22.6768 C   0  0  0  0  0  0  0  0  0  0  0  0
    4.6225    7.6648   22.1751 S   0  0  0  0  0  0  0  0  0  0  0  0
    4.4683    9.1793   23.0010 C   0  0  0  0  0  0  0  0  0  0  0  0
    3.2397    9.0679   23.6424 C   0  0  0  0  0  0  0  0  0  0  0  0
    2.5734    5.5304   22.3132 C   0  0  0  0  0  0  0  0  0  0  0  0
    2.7028   10.1521   24.4695 C   0  0  0  0  0  0  0  0  0  0  0  0
    2.8669   10.1363   25.6752 O   0  0  0  0  0  0  0  0  0  0  0  0
    2.0255   11.1663   23.8949 N   0  0  0  0  0  0  0  0  0  0  0  0
    1.8940   11.1791   22.9342 H   0  0  0  0  0  0  0  0  0  0  0  0
    1.6703   11.8837   24.4422 H   0  0  0  0  0  0  0  0  0  0  0  0
    7.4665   11.3193   23.7238 C   0  0  0  0  0  0  0  0  0  0  0  0
    6.8414   12.4636   23.1396 O   0  0  0  0  0  0  0  0  0  0  0  0
    6.2877   13.3671   23.9928 C   0  0  0  0  0  0  0  0  0  0  0  0
    4.9195   13.3634   24.2161 C   0  0  0  0  0  0  0  0  0  0  0  0
    4.3587   14.2814   25.0842 C   0  0  0  0  0  0  0  0  0  0  0  0
    5.1593   15.2043   25.7315 C   0  0  0  0  0  0  0  0  0  0  0  0
    6.5247   15.2100   25.5171 C   0  0  0  0  0  0  0  0  0  0  0  0
    7.0926   14.2961   24.6432 C   0  0  0  0  0  0  0  0  0  0  0  0
    8.4356   14.3038   24.4278 O   0  0  0  0  0  0  0  0  0  0  0  0
    9.2506   14.9110   25.4320 C   0  0  0  0  0  0  0  0  0  0  0  0
  5  6  1  0  0  0
  6  7  2  0  0  0
  6 10  1  0  0  0
  7  8  1  0  0  0
  7 11  1  0  0  0
  8  9  1  0  0  0
  9 10  2  0  0  0
  9  1  1  0  0  0
 10 12  1  0  0  0
 12 13  2  0  0  0
 12 14  1  0  0  0
 14 15  1  0  0  0
 14 16  1  0  0  0
  1  2  1  0  0  0
  1  4  1  0  0  0
  2  3  2  0  0  0
  2 17  1  0  0  0
 17 18  1  0  0  0
 18 19  1  0  0  0
 19 20  2  0  0  0
 19 24  1  0  0  0
 20 21  1  0  0  0
 21 22  2  0  0  0
 22 23  1  0  0  0
 23 24  2  0  0  0
 24 25  1  0  0  0
 25 26  1  0  0  0
M  END
> <minimizedAffinity>
-7.66733

$$$$
ZINC00038397


 26 27  0  0  0  0  0  0  0  0999 V2000
    1.8407   12.4279   24.5509 N   0  0  0  0  0  0  0  0  0  0  0  0
    1.0355   12.5235   23.4743 C   0  0  0  0  0  0  0  0  0  0  0  0
    1.4990   12.8315   22.3965 O   0  0  0  0  0  0  0  0  0  0  0  0
    1.4710   12.1825   25.4128 H   0  0  0  0  0  0  0  0  0  0  0  0
    6.6990   11.5361   23.4414 C   0  0  0  0  0  0  0  0  0  0  0  0
    5.5380   12.3634   23.9316 C   0  0  0  0  0  0  0  0  0  0  0  0
    5.7103   13.6242   24.3673 C   0  0  0  0  0  0  0  0  0  0  0  0
    4.0617   14.1321   24.8127 S   0  0  0  0  0  0  0  0  0  0  0  0
    3.1983   12.6815   24.4260 C   0  0  0  0  0  0  0  0  0  0  0  0
    4.1949   11.8346   23.9539 C   0  0  0  0  0  0  0  0  0  0  0  0
    6.9878   14.4184   24.4528 C   0  0  0  0  0  0  0  0  0  0  0  0
    3.8968   10.4729   23.5019 C   0  0  0  0  0  0  0  0  0  0  0  0
    3.6903   10.2545   22.3226 O   0  0  0  0  0  0  0  0  0  0  0  0
    3.8496    9.4621   24.3926 N   0  0  0  0  0  0  0  0  0  0  0  0
    4.0136    9.6356   25.3325 H   0  0  0  0  0  0  0  0  0  0  0  0
    3.6524    8.5610   24.0935 H   0  0  0  0  0  0  0  0  0  0  0  0
   -0.4399   12.2485   23.6092 C   0  0  0  0  0  0  0  0  0  0  0  0
   -0.6520   10.8416   23.7390 O   0  0  0  0  0  0  0  0  0  0  0  0
   -0.4759   10.3025   24.9757 C   0  0  0  0  0  0  0  0  0  0  0  0
   -1.1352   10.8426   26.0690 C   0  0  0  0  0  0  0  0  0  0  0  0
   -0.9561   10.2929   27.3246 C   0  0  0  0  0  0  0  0  0  0  0  0
   -0.1203    9.2044   27.4935 C   0  0  0  0  0  0  0  0  0  0  0  0
    0.5360    8.6581   26.4067 C   0  0  0  0  0  0  0  0  0  0  0  0
    0.3654    9.2083   25.1459 C   0  0  0  0  0  0  0  0  0  0  0  0
    1.0144    8.6745   24.0764 O   0  0  0  0  0  0  0  0  0  0  0  0
    1.0593    7.2491   23.9896 C   0  0  0  0  0  0  0  0  0  0  0  0
  5  6  1  0  0  0
  6  7  2  0  0  0
  6 10  1  0  0  0
  7  8  1  0  0  0
  7 11  1  0  0  0
  8  9  1  0  0  0
  9 10  2  0  0  0
  9  1  1  0  0  0
 10 12  1  0  0  0
 12 13  2  0  0  0
 12 14  1  0  0  0
 14 15  1  0  0  0
 14 16  1  0  0  0
  1  2  1  0  0  0
  1  4  1  0  0  0
  2  3  2  0  0  0
  2 17  1  0  0  0
 17 18  1  0  0  0
 18 19  1  0  0  0
 19 20  2  0  0  0
 19 24  1  0  0  0
 20 21  1  0  0  0
 21 22  2  0  0  0
 22 23  1  0  0  0
 23 24  2  0  0  0
 24 25  1  0  0  0
 25 26  1  0  0  0
M  END
> <minimizedAffinity>
-7.60321

$$$$
