ZINC03832018


 27 29  0  0  0  0  0  0  0  0999 V2000
    6.2544   11.7239   23.3664 N   0  0  0  0  0  0  0  0  0  0  0  0
    4.9110   11.6041   23.5645 C   0  0  0  0  0  0  0  0  0  0  0  0
    4.4539   12.6635   24.1676 N   0  0  0  0  0  0  0  0  0  0  0  0
    5.4713   13.5297   24.3888 C   0  0  0  0  0  0  0  0  0  0  0  0
    6.6381   12.9396   23.8741 C   0  0  0  0  0  0  0  0  0  0  0  0
    7.7896   13.5959   23.9684 N   0  0  0  0  0  0  0  0  0  0  0  0
    7.8405   14.7839   24.5340 C   0  0  0  0  0  0  0  0  0  0  0  0
    6.7725   15.3784   25.0315 N   0  0  0  0  0  0  0  0  0  0  0  0
    5.5772   14.7989   24.9837 C   0  0  0  0  0  0  0  0  0  0  0  0
    4.4619   15.4308   25.5070 N   0  0  0  0  0  0  0  0  0  0  0  0
    3.7849   15.5661   24.7830 H   0  0  0  0  0  0  0  0  0  0  0  0
    4.5474   16.3061   25.9150 H   0  0  0  0  0  0  0  0  0  0  0  0
    7.1280   10.7372   22.7269 C   0  0  0  0  0  0  0  0  0  0  0  0
    7.9047    9.9731   23.8007 C   0  0  0  0  0  0  0  0  0  0  0  0
    8.3406    7.5145   23.9083 C   0  0  0  0  0  0  0  0  0  0  0  0
    7.2659    8.5987   24.0114 C   0  0  0  0  0  0  0  0  0  0  0  0
    4.0788   10.4171   23.1523 C   0  0  0  0  0  0  0  0  0  0  0  0
    2.8608   10.3274   24.0341 C   0  0  0  0  0  0  0  0  0  0  0  0
    2.8967    9.5635   25.1849 C   0  0  0  0  0  0  0  0  0  0  0  0
    1.7757    9.4808   25.9971 C   0  0  0  0  0  0  0  0  0  0  0  0
    0.6180   10.1648   25.6542 C   0  0  0  0  0  0  0  0  0  0  0  0
    0.5844   10.9314   24.5061 C   0  0  0  0  0  0  0  0  0  0  0  0
    1.7040   11.0099   23.6915 C   0  0  0  0  0  0  0  0  0  0  0  0
    1.6688   11.7607   22.5581 O   0  0  0  0  0  0  0  0  0  0  0  0
    0.6591   12.7702   22.4795 C   0  0  0  0  0  0  0  0  0  0  0  0
    1.8108    8.7300   27.1304 O   0  0  0  0  0  0  0  0  0  0  0  0
    0.5548    8.3265   27.6809 C   0  0  0  0  0  0  0  0  0  0  0  0
 15 16  1  0  0  0
 16 14  1  0  0  0
 14 13  1  0  0  0
 13  1  1  0  0  0
  1  2  1  0  0  0
  1  5  1  0  0  0
  2  3  2  0  0  0
  2 17  1  0  0  0
  3  4  1  0  0  0
  4  5  2  0  0  0
  4  9  1  0  0  0
  5  6  1  0  0  0
  6  7  2  0  0  0
  7  8  1  0  0  0
  8  9  2  0  0  0
  9 10  1  0  0  0
 10 11  1  0  0  0
 10 12  1  0  0  0
 17 18  1  0  0  0
 18 19  2  0  0  0
 18 23  1  0  0  0
 19 20  1  0  0  0
 20 21  2  0  0  0
 20 26  1  0  0  0
 21 22  1  0  0  0
 22 23  2  0  0  0
 23 24  1  0  0  0
 24 25  1  0  0  0
 26 27  1  0  0  0
M  END
> <minimizedAffinity>
-9.32189

$$$$
ZINC03832018


 27 29  0  0  0  0  0  0  0  0999 V2000
    6.1011   11.8050   23.4632 N   0  0  0  0  0  0  0  0  0  0  0  0
    4.7587   11.7710   23.6980 C   0  0  0  0  0  0  0  0  0  0  0  0
    4.3842   12.8634   24.2991 N   0  0  0  0  0  0  0  0  0  0  0  0
    5.4587   13.6673   24.4823 C   0  0  0  0  0  0  0  0  0  0  0  0
    6.5727   13.0002   23.9449 C   0  0  0  0  0  0  0  0  0  0  0  0
    7.7645   13.5849   24.0006 N   0  0  0  0  0  0  0  0  0  0  0  0
    7.9039   14.7738   24.5492 C   0  0  0  0  0  0  0  0  0  0  0  0
    6.8883   15.4389   25.0667 N   0  0  0  0  0  0  0  0  0  0  0  0
    5.6587   14.9342   25.0578 C   0  0  0  0  0  0  0  0  0  0  0  0
    4.5990   15.6398   25.6020 N   0  0  0  0  0  0  0  0  0  0  0  0
    3.9124   15.8087   24.8942 H   0  0  0  0  0  0  0  0  0  0  0  0
    4.7493   16.5127   25.9962 H   0  0  0  0  0  0  0  0  0  0  0  0
    6.8946   10.7589   22.8138 C   0  0  0  0  0  0  0  0  0  0  0  0
    7.7550   10.0489   23.8606 C   0  0  0  0  0  0  0  0  0  0  0  0
    7.7841    7.6370   24.5147 C   0  0  0  0  0  0  0  0  0  0  0  0
    8.0688    8.6287   23.3850 C   0  0  0  0  0  0  0  0  0  0  0  0
    3.8440   10.6333   23.3231 C   0  0  0  0  0  0  0  0  0  0  0  0
    2.4564   10.9142   23.8377 C   0  0  0  0  0  0  0  0  0  0  0  0
    1.6250   11.7744   23.1463 C   0  0  0  0  0  0  0  0  0  0  0  0
    0.3474   12.0331   23.6197 C   0  0  0  0  0  0  0  0  0  0  0  0
   -0.0960   11.4285   24.7874 C   0  0  0  0  0  0  0  0  0  0  0  0
    0.7342   10.5657   25.4753 C   0  0  0  0  0  0  0  0  0  0  0  0
    2.0135   10.3110   25.0045 C   0  0  0  0  0  0  0  0  0  0  0  0
    2.8326    9.4654   25.6851 O   0  0  0  0  0  0  0  0  0  0  0  0
    2.2303    8.6503   26.6939 C   0  0  0  0  0  0  0  0  0  0  0  0
   -0.4717   12.8787   22.9391 O   0  0  0  0  0  0  0  0  0  0  0  0
   -1.8031   12.4261   22.6821 C   0  0  0  0  0  0  0  0  0  0  0  0
 15 16  1  0  0  0
 16 14  1  0  0  0
 14 13  1  0  0  0
 13  1  1  0  0  0
  1  2  1  0  0  0
  1  5  1  0  0  0
  2  3  2  0  0  0
  2 17  1  0  0  0
  3  4  1  0  0  0
  4  5  2  0  0  0
  4  9  1  0  0  0
  5  6  1  0  0  0
  6  7  2  0  0  0
  7  8  1  0  0  0
  8  9  2  0  0  0
  9 10  1  0  0  0
 10 11  1  0  0  0
 10 12  1  0  0  0
 17 18  1  0  0  0
 18 19  2  0  0  0
 18 23  1  0  0  0
 19 20  1  0  0  0
 20 21  2  0  0  0
 20 26  1  0  0  0
 21 22  1  0  0  0
 22 23  2  0  0  0
 23 24  1  0  0  0
 24 25  1  0  0  0
 26 27  1  0  0  0
M  END
> <minimizedAffinity>
-9.28471

$$$$
ZINC03832018


 27 29  0  0  0  0  0  0  0  0999 V2000
    5.9467   11.7022   23.4081 N   0  0  0  0  0  0  0  0  0  0  0  0
    4.5880   11.6967   23.5193 C   0  0  0  0  0  0  0  0  0  0  0  0
    4.1869   12.7760   24.1269 N   0  0  0  0  0  0  0  0  0  0  0  0
    5.2594   13.5423   24.4380 C   0  0  0  0  0  0  0  0  0  0  0  0
    6.4012   12.8650   23.9772 C   0  0  0  0  0  0  0  0  0  0  0  0
    7.5969   13.4140   24.1633 N   0  0  0  0  0  0  0  0  0  0  0  0
    7.7144   14.5772   24.7689 C   0  0  0  0  0  0  0  0  0  0  0  0
    6.6724   15.2506   25.2187 N   0  0  0  0  0  0  0  0  0  0  0  0
    5.4369   14.7809   25.0789 C   0  0  0  0  0  0  0  0  0  0  0  0
    4.3494   15.4949   25.5528 N   0  0  0  0  0  0  0  0  0  0  0  0
    3.7345   15.7091   24.7933 H   0  0  0  0  0  0  0  0  0  0  0  0
    4.4843   16.3480   25.9933 H   0  0  0  0  0  0  0  0  0  0  0  0
    6.7705   10.6593   22.7919 C   0  0  0  0  0  0  0  0  0  0  0  0
    7.5682    9.9335   23.8768 C   0  0  0  0  0  0  0  0  0  0  0  0
    7.8076    7.5281   24.5114 C   0  0  0  0  0  0  0  0  0  0  0  0
    7.9615    8.5421   23.3760 C   0  0  0  0  0  0  0  0  0  0  0  0
    3.6840   10.5996   23.0186 C   0  0  0  0  0  0  0  0  0  0  0  0
    3.5980    9.5086   24.0537 C   0  0  0  0  0  0  0  0  0  0  0  0
    3.0291    9.7693   25.2856 C   0  0  0  0  0  0  0  0  0  0  0  0
    2.9496    8.7650   26.2387 C   0  0  0  0  0  0  0  0  0  0  0  0
    3.4412    7.4986   25.9554 C   0  0  0  0  0  0  0  0  0  0  0  0
    4.0056    7.2379   24.7224 C   0  0  0  0  0  0  0  0  0  0  0  0
    4.0896    8.2436   23.7713 C   0  0  0  0  0  0  0  0  0  0  0  0
    4.6503    7.9879   22.5591 O   0  0  0  0  0  0  0  0  0  0  0  0
    4.2195    6.8047   21.8815 C   0  0  0  0  0  0  0  0  0  0  0  0
    2.3889    9.0208   27.4509 O   0  0  0  0  0  0  0  0  0  0  0  0
    2.2942    7.9267   28.3661 C   0  0  0  0  0  0  0  0  0  0  0  0
 15 16  1  0  0  0
 16 14  1  0  0  0
 14 13  1  0  0  0
 13  1  1  0  0  0
  1  2  1  0  0  0
  1  5  1  0  0  0
  2  3  2  0  0  0
  2 17  1  0  0  0
  3  4  1  0  0  0
  4  5  2  0  0  0
  4  9  1  0  0  0
  5  6  1  0  0  0
  6  7  2  0  0  0
  7  8  1  0  0  0
  8  9  2  0  0  0
  9 10  1  0  0  0
 10 11  1  0  0  0
 10 12  1  0  0  0
 17 18  1  0  0  0
 18 19  2  0  0  0
 18 23  1  0  0  0
 19 20  1  0  0  0
 20 21  2  0  0  0
 20 26  1  0  0  0
 21 22  1  0  0  0
 22 23  2  0  0  0
 23 24  1  0  0  0
 24 25  1  0  0  0
 26 27  1  0  0  0
M  END
> <minimizedAffinity>
-8.75404

$$$$
