ZINC00068254


 27 29  0  0  0  0  0  0  0  0999 V2000
    7.5921   14.7590   24.3471 C   0  0  0  0  0  0  0  0  0  0  0  0
    6.4794   15.0736   25.3517 C   0  0  0  0  0  0  0  0  0  0  0  0
    5.1280   14.6356   24.7854 C   0  0  0  0  0  0  0  0  0  0  0  0
    5.2299   13.1803   24.3427 C   0  0  0  0  0  0  0  0  0  0  0  0
    6.4310   12.6009   24.1312 C   0  0  0  0  0  0  0  0  0  0  0  0
    6.0537   10.9416   23.6429 S   0  0  0  0  0  0  0  0  0  0  0  0
    4.3242   11.0147   23.7184 C   0  0  0  0  0  0  0  0  0  0  0  0
    4.0804   12.3219   24.1193 C   0  0  0  0  0  0  0  0  0  0  0  0
    7.7794   13.2363   24.2788 C   0  0  0  0  0  0  0  0  0  0  0  0
    2.7129   12.8156   24.3100 C   0  0  0  0  0  0  0  0  0  0  0  0
    1.7952   12.0276   24.4485 O   0  0  0  0  0  0  0  0  0  0  0  0
    2.4717   14.1409   24.3320 N   0  0  0  0  0  0  0  0  0  0  0  0
    3.2023   14.7694   24.2219 H   0  0  0  0  0  0  0  0  0  0  0  0
    1.5666   14.4678   24.4577 H   0  0  0  0  0  0  0  0  0  0  0  0
    3.4067   10.0136   23.4449 N   0  0  0  0  0  0  0  0  0  0  0  0
    3.1181    9.0902   24.3842 C   0  0  0  0  0  0  0  0  0  0  0  0
    3.6629    9.1354   25.4691 O   0  0  0  0  0  0  0  0  0  0  0  0
    2.9714    9.9766   22.5794 H   0  0  0  0  0  0  0  0  0  0  0  0
    2.1375    8.0196   24.0924 C   0  0  0  0  0  0  0  0  0  0  0  0
    2.3754    7.0818   23.0819 C   0  0  0  0  0  0  0  0  0  0  0  0
    1.4357    6.0972   22.8470 C   0  0  0  0  0  0  0  0  0  0  0  0
    0.3232    6.0411   23.5516 N   0  0  0  0  0  0  0  0  0  0  0  0
    0.0564    6.9085   24.5084 C   0  0  0  0  0  0  0  0  0  0  0  0
    0.9432    7.9220   24.8146 C   0  0  0  0  0  0  0  0  0  0  0  0
    8.8957   15.4162   24.8038 C   0  0  0  0  0  0  0  0  0  0  0  0
   10.8450   14.7642   26.2254 C   0  0  0  0  0  0  0  0  0  0  0  0
    9.3177   14.8293   26.1522 C   0  0  0  0  0  0  0  0  0  0  0  0
 26 27  1  0  0  0
 27 25  1  0  0  0
  1 25  1  0  0  0
  1  2  1  0  0  0
  1  9  1  0  0  0
  2  3  1  0  0  0
  3  4  1  0  0  0
  4  5  2  0  0  0
  4  8  1  0  0  0
  5  6  1  0  0  0
  5  9  1  0  0  0
  6  7  1  0  0  0
  7  8  2  0  0  0
  7 15  1  0  0  0
  8 10  1  0  0  0
 10 11  2  0  0  0
 10 12  1  0  0  0
 12 13  1  0  0  0
 12 14  1  0  0  0
 15 16  1  0  0  0
 15 18  1  0  0  0
 16 17  2  0  0  0
 16 19  1  0  0  0
 19 20  2  0  0  0
 19 24  1  0  0  0
 20 21  1  0  0  0
 21 22  2  0  0  0
 22 23  1  0  0  0
 23 24  2  0  0  0
M  END
> <minimizedAffinity>
-8.14645

$$$$
ZINC00068254


 27 29  0  0  0  0  0  0  0  0999 V2000
    8.1715   14.4272   25.8919 C   0  0  0  0  0  0  0  0  0  0  0  0
    8.5162   13.7197   24.5778 C   0  0  0  0  0  0  0  0  0  0  0  0
    7.5635   12.5444   24.3541 C   0  0  0  0  0  0  0  0  0  0  0  0
    6.1290   13.0446   24.4816 C   0  0  0  0  0  0  0  0  0  0  0  0
    5.8532   14.2145   25.0968 C   0  0  0  0  0  0  0  0  0  0  0  0
    4.0925   14.3724   25.0009 S   0  0  0  0  0  0  0  0  0  0  0  0
    3.7261   12.9053   24.1551 C   0  0  0  0  0  0  0  0  0  0  0  0
    4.9754   12.3282   23.9677 C   0  0  0  0  0  0  0  0  0  0  0  0
    6.8326   15.1600   25.7215 C   0  0  0  0  0  0  0  0  0  0  0  0
    5.1229   11.0436   23.2761 C   0  0  0  0  0  0  0  0  0  0  0  0
    4.1476   10.3406   23.0838 O   0  0  0  0  0  0  0  0  0  0  0  0
    6.3372   10.6411   22.8534 N   0  0  0  0  0  0  0  0  0  0  0  0
    7.1146   11.2007   23.0062 H   0  0  0  0  0  0  0  0  0  0  0  0
    6.4350    9.7907   22.3962 H   0  0  0  0  0  0  0  0  0  0  0  0
    2.4883   12.4237   23.7616 N   0  0  0  0  0  0  0  0  0  0  0  0
    1.4301   13.2572   23.7008 C   0  0  0  0  0  0  0  0  0  0  0  0
    1.5616   14.4293   23.9919 O   0  0  0  0  0  0  0  0  0  0  0  0
    2.3823   11.4884   23.5291 H   0  0  0  0  0  0  0  0  0  0  0  0
    0.1066   12.7429   23.2804 C   0  0  0  0  0  0  0  0  0  0  0  0
   -0.4187   13.0524   22.0212 C   0  0  0  0  0  0  0  0  0  0  0  0
   -1.6548   12.5471   21.6685 C   0  0  0  0  0  0  0  0  0  0  0  0
   -2.3416   11.7933   22.5036 N   0  0  0  0  0  0  0  0  0  0  0  0
   -1.8866   11.4828   23.7018 C   0  0  0  0  0  0  0  0  0  0  0  0
   -0.6571   11.9398   24.1342 C   0  0  0  0  0  0  0  0  0  0  0  0
    9.2688   15.4365   26.2337 C   0  0  0  0  0  0  0  0  0  0  0  0
   11.2859   14.4249   27.3079 C   0  0  0  0  0  0  0  0  0  0  0  0
   10.6391   14.8074   25.9745 C   0  0  0  0  0  0  0  0  0  0  0  0
 26 27  1  0  0  0
 27 25  1  0  0  0
  1 25  1  0  0  0
  1  2  1  0  0  0
  1  9  1  0  0  0
  2  3  1  0  0  0
  3  4  1  0  0  0
  4  5  2  0  0  0
  4  8  1  0  0  0
  5  6  1  0  0  0
  5  9  1  0  0  0
  6  7  1  0  0  0
  7  8  2  0  0  0
  7 15  1  0  0  0
  8 10  1  0  0  0
 10 11  2  0  0  0
 10 12  1  0  0  0
 12 13  1  0  0  0
 12 14  1  0  0  0
 15 16  1  0  0  0
 15 18  1  0  0  0
 16 17  2  0  0  0
 16 19  1  0  0  0
 19 20  2  0  0  0
 19 24  1  0  0  0
 20 21  1  0  0  0
 21 22  2  0  0  0
 22 23  1  0  0  0
 23 24  2  0  0  0
M  END
> <minimizedAffinity>
-7.57361

$$$$
ZINC00068254


 27 29  0  0  0  0  0  0  0  0999 V2000
    1.0418   12.8123   23.4704 C   0  0  0  0  0  0  0  0  0  0  0  0
    1.5239   11.4030   23.8281 C   0  0  0  0  0  0  0  0  0  0  0  0
    2.9637   11.2088   23.3505 C   0  0  0  0  0  0  0  0  0  0  0  0
    3.8157   12.3560   23.8816 C   0  0  0  0  0  0  0  0  0  0  0  0
    3.2467   13.5004   24.3171 C   0  0  0  0  0  0  0  0  0  0  0  0
    4.6042   14.5152   24.8285 S   0  0  0  0  0  0  0  0  0  0  0  0
    5.9108   13.4354   24.4696 C   0  0  0  0  0  0  0  0  0  0  0  0
    5.2649   12.3155   23.9621 C   0  0  0  0  0  0  0  0  0  0  0  0
    1.7852   13.8268   24.3515 C   0  0  0  0  0  0  0  0  0  0  0  0
    6.0191   11.1365   23.5246 C   0  0  0  0  0  0  0  0  0  0  0  0
    6.9563   11.2637   22.7579 O   0  0  0  0  0  0  0  0  0  0  0  0
    5.6754    9.9126   23.9708 N   0  0  0  0  0  0  0  0  0  0  0  0
    4.9289    9.8105   24.5817 H   0  0  0  0  0  0  0  0  0  0  0  0
    6.1741    9.1322   23.6809 H   0  0  0  0  0  0  0  0  0  0  0  0
    7.2697   13.6388   24.6451 N   0  0  0  0  0  0  0  0  0  0  0  0
    7.7172   14.2899   25.7379 C   0  0  0  0  0  0  0  0  0  0  0  0
    6.9294   14.6986   26.5674 O   0  0  0  0  0  0  0  0  0  0  0  0
    7.8993   13.3130   23.9836 H   0  0  0  0  0  0  0  0  0  0  0  0
    9.1698   14.5078   25.9260 C   0  0  0  0  0  0  0  0  0  0  0  0
    9.6438   15.5862   26.6806 C   0  0  0  0  0  0  0  0  0  0  0  0
   11.0068   15.7486   26.8341 C   0  0  0  0  0  0  0  0  0  0  0  0
   11.8560   14.9117   26.2722 N   0  0  0  0  0  0  0  0  0  0  0  0
   11.4522   13.8864   25.5479 C   0  0  0  0  0  0  0  0  0  0  0  0
   10.1072   13.6451   25.3477 C   0  0  0  0  0  0  0  0  0  0  0  0
   -0.4630   12.9187   23.7233 C   0  0  0  0  0  0  0  0  0  0  0  0
   -1.2441   12.9687   21.3498 C   0  0  0  0  0  0  0  0  0  0  0  0
   -1.2181   12.1460   22.6401 C   0  0  0  0  0  0  0  0  0  0  0  0
 26 27  1  0  0  0
 27 25  1  0  0  0
  1 25  1  0  0  0
  1  2  1  0  0  0
  1  9  1  0  0  0
  2  3  1  0  0  0
  3  4  1  0  0  0
  4  5  2  0  0  0
  4  8  1  0  0  0
  5  6  1  0  0  0
  5  9  1  0  0  0
  6  7  1  0  0  0
  7  8  2  0  0  0
  7 15  1  0  0  0
  8 10  1  0  0  0
 10 11  2  0  0  0
 10 12  1  0  0  0
 12 13  1  0  0  0
 12 14  1  0  0  0
 15 16  1  0  0  0
 15 18  1  0  0  0
 16 17  2  0  0  0
 16 19  1  0  0  0
 19 20  2  0  0  0
 19 24  1  0  0  0
 20 21  1  0  0  0
 21 22  2  0  0  0
 22 23  1  0  0  0
 23 24  2  0  0  0
M  END
> <minimizedAffinity>
-7.08360

$$$$
