# created with PyMOL 2.5.0
@<TRIPOS>MOLECULE
cocrystal/docking_cocrystal/2iw8_4SP_LIG.pdb
50 53 1                 
SMALL
USER_CHARGES
@<TRIPOS>ATOM
1	 H21	-12.760	204.120	116.070	 H	1	UNK0	0.000	
2	 H22	-13.500	205.050	117.380	 H	1	UNK0	0.000	
3	 H19	-11.170	205.790	116.960	 H	1	UNK0	0.000	
4	 H08	-7.460	207.480	110.490	 H	1	UNK0	0.000	
5	 H20	-11.620	206.190	115.270	 H	1	UNK0	0.000	
6	 H01	-19.280	207.200	112.880	 H	1	UNK0	0.000	
7	 H05	-9.130	207.450	109.880	 H	1	UNK0	0.000	
8	 H04	-10.280	206.820	113.980	 H	1	UNK0	0.000	
9	 H11	-16.280	205.210	115.870	 H	1	UNK0	0.000	
10	 H03	-13.370	205.710	109.690	 H	1	UNK0	0.000	
11	 H09	-6.940	208.890	111.170	 H	1	UNK0	0.000	
12	 H02	-19.690	205.790	111.870	 H	1	UNK0	0.000	
13	 H10	-15.180	203.870	116.270	 H	1	UNK0	0.000	
14	 H07	-12.530	206.100	113.240	 H	1	UNK0	0.000	
15	 H14	-15.410	207.310	114.950	 H	1	UNK0	0.000	
16	 H13	-15.230	206.940	116.710	 H	1	UNK0	0.000	
17	 H12	-13.800	205.580	114.400	 H	1	UNK0	0.000	
18	 H15	-14.000	208.910	116.290	 H	1	UNK0	0.000	
19	 H18	-11.640	208.210	116.720	 H	1	UNK0	0.000	
20	 H17	-12.840	207.430	117.780	 H	1	UNK0	0.000	
21	 H16	-13.190	208.190	114.860	 H	1	UNK0	0.000	
22	 H06	-11.360	206.700	109.150	 H	1	UNK0	0.000	
23	  C1	-14.520	205.790	111.350	C.2	1	UNK0	0.000	
24	  C2	-18.870	206.350	112.330	C.3	1	UNK0	0.000	
25	  N1	-14.560	205.010	112.460	N.2	1	UNK0	0.000	
26	  C3	-15.690	204.830	113.180	C.2	1	UNK0	0.000	
27	  C4	-16.920	205.480	112.750	C.2	1	UNK0	0.000	
28	  N2	-18.190	205.540	113.190	N.2	1	UNK0	0.000	
29	  N3	-18.030	206.810	111.350	N.2	1	UNK0	0.000	
30	  C5	-16.810	206.250	111.600	C.2	1	UNK0	0.000	
31	  N4	-15.650	206.410	110.920	N.2	1	UNK0	0.000	
32	  N5	-13.340	205.930	110.670	N.pl3	1	UNK0	0.000	
33	  C6	-10.510	206.800	112.920	C.2	1	UNK0	0.000	
34	  C7	-9.530	207.200	112.000	C.2	1	UNK0	0.000	
35	  C8	-9.860	207.150	110.630	C.2	1	UNK0	0.000	
36	  C9	-11.130	206.730	110.210	C.2	1	UNK0	0.000	
37	 C10	-12.110	206.330	111.140	C.2	1	UNK0	0.000	
38	 C11	-11.780	206.380	112.500	C.2	1	UNK0	0.000	
39	  N6	-7.080	207.900	111.320	N.3	1	UNK0	0.000	
40	  S1	-8.060	207.700	112.470	S.o2	1	UNK0	0.000	
41	  O1	-7.430	206.700	113.370	O.2	1	UNK0	0.000	
42	  O2	-8.250	208.960	113.230	O.2	1	UNK0	0.000	
43	  O3	-15.680	204.040	114.290	O.3	1	UNK0	0.000	
44	 C12	-15.410	204.650	115.540	C.3	1	UNK0	0.000	
45	 C13	-14.230	205.580	115.400	C.3	1	UNK0	0.000	
46	 C14	-14.730	206.980	115.740	C.3	1	UNK0	0.000	
47	 C15	-13.590	208.000	115.850	C.3	1	UNK0	0.000	
48	 C16	-12.470	207.500	116.760	C.3	1	UNK0	0.000	
49	 C17	-11.980	206.120	116.300	C.3	1	UNK0	0.000	
50	 C18	-13.110	205.110	116.360	C.3	1	UNK0	0.000	
@<TRIPOS>BOND
1 23 25 1
2 23 31 2
3 23 32 1
4 6 24 1
5 12 24 1
6 24 28 1
7 24 29 1
8 25 26 2
9 26 27 1
10 26 43 1
11 27 28 2
12 27 30 1
13 29 30 2
14 30 31 1
15 10 32 1
16 32 37 1
17 8 33 1
18 33 34 1
19 33 38 2
20 34 35 2
21 34 40 1
22 7 35 1
23 35 36 1
24 22 36 1
25 36 37 2
26 37 38 1
27 14 38 1
28 4 39 1
29 11 39 1
30 39 40 1
31 40 41 2
32 40 42 2
33 43 44 1
34 9 44 1
35 13 44 1
36 44 45 1
37 17 45 1
38 45 46 1
39 45 50 1
40 15 46 1
41 16 46 1
42 46 47 1
43 18 47 1
44 21 47 1
45 47 48 1
46 19 48 1
47 20 48 1
48 48 49 1
49 3 49 1
50 5 49 1
51 49 50 1
52 1 50 1
53 2 50 1
@<TRIPOS>SUBSTRUCTURE
1	UNK0	1	GROUP	1 ****	UNK
