# created with PyMOL 2.5.0
@<TRIPOS>MOLECULE
cocrystal/docking_cocrystal/2iw8_4SP_LIG.pdb
28 31 1                 
SMALL
USER_CHARGES
@<TRIPOS>ATOM
1	  C1	-14.250	205.287	111.449	C.2	1	UNK0	0.000	
2	  C2	-18.583	205.512	112.620	C.3	1	UNK0	0.000	
3	  N1	-14.191	204.464	112.526	N.2	1	UNK0	0.000	
4	  C3	-15.276	204.180	113.282	C.2	1	UNK0	0.000	
5	  C4	-16.563	204.761	112.928	C.2	1	UNK0	0.000	
6	  N2	-17.815	204.717	113.419	N.2	1	UNK0	0.000	
7	  N3	-17.817	206.065	111.628	N.2	1	UNK0	0.000	
8	  C5	-16.553	205.580	111.807	C.2	1	UNK0	0.000	
9	  N4	-15.435	205.845	111.089	N.2	1	UNK0	0.000	
10	  N5	-13.111	205.533	110.730	N.pl3	1	UNK0	0.000	
11	  C6	-10.254	206.507	112.901	C.2	1	UNK0	0.000	
12	  C7	-9.342	207.008	111.961	C.2	1	UNK0	0.000	
13	  C8	-9.725	206.988	110.604	C.2	1	UNK0	0.000	
14	  C9	-10.980	206.499	110.217	C.2	1	UNK0	0.000	
15	 C10	-11.892	205.998	111.167	C.2	1	UNK0	0.000	
16	 C11	-11.509	206.018	112.514	C.2	1	UNK0	0.000	
17	  N6	-6.974	207.899	111.215	N.3	1	UNK0	0.000	
18	  S1	-7.890	207.588	112.393	S.o2	1	UNK0	0.000	
19	  O1	-7.158	206.600	113.226	O.2	1	UNK0	0.000	
20	  O2	-8.131	208.802	113.211	O.2	1	UNK0	0.000	
21	  O3	-15.167	203.351	114.357	O.3	1	UNK0	0.000	
22	 C12	-14.886	203.929	115.620	C.3	1	UNK0	0.000	
23	 C13	-13.777	204.942	115.472	C.3	1	UNK0	0.000	
24	 C14	-14.355	206.290	115.889	C.3	1	UNK0	0.000	
25	 C15	-13.282	207.381	115.996	C.3	1	UNK0	0.000	
26	 C16	-12.094	206.924	116.840	C.3	1	UNK0	0.000	
27	 C17	-11.533	205.599	116.305	C.3	1	UNK0	0.000	
28	 C18	-12.590	204.513	116.368	C.3	1	UNK0	0.000	
@<TRIPOS>BOND
1 1 3 1
2 1 9 2
3 1 10 1
4 2 6 1
5 2 7 1
6 3 4 2
7 4 5 1
8 4 21 1
9 5 6 2
10 5 8 1
11 7 8 2
12 8 9 1
13 10 15 1
14 11 12 1
15 11 16 2
16 12 13 2
17 12 18 1
18 13 14 1
19 14 15 2
20 15 16 1
21 17 18 1
22 18 19 2
23 18 20 2
24 21 22 1
25 22 23 1
26 23 24 1
27 23 28 1
28 24 25 1
29 25 26 1
30 26 27 1
31 27 28 1
@<TRIPOS>SUBSTRUCTURE
1	UNK0	1	GROUP	1 ****	UNK
