# created with PyMOL 2.5.0
@<TRIPOS>MOLECULE
cocrystal/docking_cocrystal/2iw8_4SP_LIG.pdb
28 31 1                 
SMALL
USER_CHARGES
@<TRIPOS>ATOM
1	  C1	-11.976	205.821	112.377	C.2	1	UNK0	0.000	
2	  C2	-16.420	206.227	111.184	C.3	1	UNK0	0.000	
3	  N1	-12.426	205.348	113.598	N.2	1	UNK0	0.000	
4	  C3	-13.787	205.138	113.772	C.2	1	UNK0	0.000	
5	  C4	-14.764	205.252	112.631	C.2	1	UNK0	0.000	
6	  N2	-16.146	205.670	112.669	N.2	1	UNK0	0.000	
7	  N3	-15.023	206.134	110.385	N.2	1	UNK0	0.000	
8	  C5	-14.081	205.616	111.311	C.2	1	UNK0	0.000	
9	  N4	-12.755	206.008	111.268	N.2	1	UNK0	0.000	
10	  N5	-10.711	206.207	112.146	N.pl3	1	UNK0	0.000	
11	  C6	-8.831	207.264	115.244	C.2	1	UNK0	0.000	
12	  C7	-7.988	208.238	114.670	C.2	1	UNK0	0.000	
13	  C8	-8.045	208.504	113.290	C.2	1	UNK0	0.000	
14	  C9	-8.953	207.784	112.504	C.2	1	UNK0	0.000	
15	 C10	-9.832	206.869	113.062	C.2	1	UNK0	0.000	
16	 C11	-9.734	206.576	114.428	C.2	1	UNK0	0.000	
17	  N6	-5.399	208.754	115.107	N.3	1	UNK0	0.000	
18	  S1	-6.859	209.171	115.712	S.o2	1	UNK0	0.000	
19	  O1	-6.887	208.660	117.067	O.2	1	UNK0	0.000	
20	  O2	-6.954	210.582	115.421	O.2	1	UNK0	0.000	
21	  O3	-14.347	204.572	114.886	O.3	1	UNK0	0.000	
22	 C12	-13.426	204.326	115.964	C.3	1	UNK0	0.000	
23	 C13	-13.060	205.583	116.693	C.3	1	UNK0	0.000	
24	 C14	-14.261	206.133	117.438	C.3	1	UNK0	0.000	
25	 C15	-13.881	207.379	118.215	C.3	1	UNK0	0.000	
26	 C16	-12.752	207.083	119.169	C.3	1	UNK0	0.000	
27	 C17	-11.554	206.553	118.416	C.3	1	UNK0	0.000	
28	 C18	-11.942	205.306	117.658	C.3	1	UNK0	0.000	
@<TRIPOS>BOND
1 1 3 1
2 1 9 2
3 1 10 1
4 2 6 1
5 2 7 1
6 3 4 2
7 4 5 1
8 4 21 1
9 5 6 2
10 5 8 1
11 7 8 2
12 8 9 1
13 10 15 1
14 11 12 1
15 11 16 2
16 12 13 2
17 12 18 1
18 13 14 1
19 14 15 2
20 15 16 1
21 17 18 1
22 18 19 2
23 18 20 2
24 21 22 1
25 22 23 1
26 23 24 1
27 23 28 1
28 24 25 1
29 25 26 1
30 26 27 1
31 27 28 1
@<TRIPOS>SUBSTRUCTURE
1	UNK0	1	GROUP	1 ****	UNK
