# created with PyMOL 2.5.0
@<TRIPOS>MOLECULE
cocrystal/docking_cocrystal/2iw8_4SP_LIG.pdb
50 53 1                 
SMALL
USER_CHARGES
@<TRIPOS>ATOM
1	 H21	-10.730	205.840	117.120	 H	1	UNK0	0.000	
2	 H22	-11.580	205.480	118.630	 H	1	UNK0	0.000	
3	 H19	-10.150	207.450	118.890	 H	1	UNK0	0.000	
4	 H08	-5.750	207.770	112.820	 H	1	UNK0	0.000	
5	 H20	-10.950	208.240	117.530	 H	1	UNK0	0.000	
6	 H01	-17.790	206.960	112.590	 H	1	UNK0	0.000	
7	 H05	-7.550	209.020	112.520	 H	1	UNK0	0.000	
8	 H04	-8.310	206.210	115.740	 H	1	UNK0	0.000	
9	 H11	-13.550	204.280	117.420	 H	1	UNK0	0.000	
10	 H03	-11.420	206.990	111.340	 H	1	UNK0	0.000	
11	 H09	-4.810	208.830	113.580	 H	1	UNK0	0.000	
12	 H02	-17.890	205.320	111.910	 H	1	UNK0	0.000	
13	 H10	-12.390	204.390	116.120	 H	1	UNK0	0.000	
14	 H07	-10.390	205.530	114.630	 H	1	UNK0	0.000	
15	 H14	-14.840	206.920	117.490	 H	1	UNK0	0.000	
16	 H13	-14.030	206.140	118.850	 H	1	UNK0	0.000	
17	 H12	-12.720	207.010	116.260	 H	1	UNK0	0.000	
18	 H15	-14.250	208.570	119.220	 H	1	UNK0	0.000	
19	 H18	-11.860	209.070	119.660	 H	1	UNK0	0.000	
20	 H17	-12.270	207.410	120.140	 H	1	UNK0	0.000	
21	 H16	-13.370	208.880	117.710	 H	1	UNK0	0.000	
22	 H06	-9.610	208.300	111.430	 H	1	UNK0	0.000	
23	  C1	-12.540	206.150	112.700	C.2	1	UNK0	0.000	
24	  C2	-17.230	206.050	112.370	C.3	1	UNK0	0.000	
25	  N1	-12.740	205.680	113.990	N.2	1	UNK0	0.000	
26	  C3	-14.030	205.450	114.430	C.2	1	UNK0	0.000	
27	  C4	-15.180	205.420	113.460	C.2	1	UNK0	0.000	
28	  N2	-16.610	205.450	113.730	N.2	1	UNK0	0.000	
29	  N3	-15.990	206.380	111.400	N.2	1	UNK0	0.000	
30	  C5	-14.830	205.990	112.100	C.2	1	UNK0	0.000	
31	  N4	-13.540	206.380	111.780	N.2	1	UNK0	0.000	
32	  N5	-11.310	206.500	112.220	N.pl3	1	UNK0	0.000	
33	  C6	-8.610	206.690	114.820	C.2	1	UNK0	0.000	
34	  C7	-7.790	207.660	114.220	C.2	1	UNK0	0.000	
35	  C8	-8.170	208.260	113.010	C.2	1	UNK0	0.000	
36	  C9	-9.350	207.850	112.380	C.2	1	UNK0	0.000	
37	 C10	-10.180	206.880	112.950	C.2	1	UNK0	0.000	
38	 C11	-9.790	206.320	114.180	C.2	1	UNK0	0.000	
39	  N6	-5.160	207.860	113.640	N.3	1	UNK0	0.000	
40	  S1	-6.140	207.980	114.930	S.o2	1	UNK0	0.000	
41	  O1	-5.800	206.890	115.810	O.2	1	UNK0	0.000	
42	  O2	-6.030	209.370	115.310	O.2	1	UNK0	0.000	
43	  O3	-14.330	204.980	115.670	O.3	1	UNK0	0.000	
44	 C12	-13.250	204.890	116.570	C.3	1	UNK0	0.000	
45	 C13	-12.820	206.300	117.090	C.3	1	UNK0	0.000	
46	 C14	-13.890	206.830	118.010	C.3	1	UNK0	0.000	
47	 C15	-13.470	208.180	118.550	C.3	1	UNK0	0.000	
48	 C16	-12.160	208.070	119.280	C.3	1	UNK0	0.000	
49	 C17	-11.090	207.550	118.360	C.3	1	UNK0	0.000	
50	 C18	-11.510	206.200	117.810	C.3	1	UNK0	0.000	
@<TRIPOS>BOND
1 23 25 1
2 23 31 2
3 23 32 1
4 6 24 1
5 12 24 1
6 24 28 1
7 24 29 1
8 25 26 2
9 26 27 1
10 26 43 1
11 27 28 2
12 27 30 1
13 29 30 2
14 30 31 1
15 10 32 1
16 32 37 1
17 8 33 1
18 33 34 1
19 33 38 2
20 34 35 2
21 34 40 1
22 7 35 1
23 35 36 1
24 22 36 1
25 36 37 2
26 37 38 1
27 14 38 1
28 4 39 1
29 11 39 1
30 39 40 1
31 40 41 2
32 40 42 2
33 43 44 1
34 9 44 1
35 13 44 1
36 44 45 1
37 17 45 1
38 45 46 1
39 45 50 1
40 15 46 1
41 16 46 1
42 46 47 1
43 18 47 1
44 21 47 1
45 47 48 1
46 19 48 1
47 20 48 1
48 48 49 1
49 3 49 1
50 5 49 1
51 49 50 1
52 1 50 1
53 2 50 1
@<TRIPOS>SUBSTRUCTURE
1	UNK0	1	GROUP	1 ****	UNK
