# created with PyMOL 2.5.0
@<TRIPOS>MOLECULE
cocrystal/docking_cocrystal/2iw8_4SP_LIG.pdb
28 31 1                 
SMALL
USER_CHARGES
@<TRIPOS>ATOM
1	  C1	-12.948	205.098	110.904	C.2	1	UNK0	0.000	
2	  C2	-17.556	204.891	111.538	C.3	1	UNK0	0.000	
3	  N1	-12.835	204.447	112.119	N.2	1	UNK0	0.000	
4	  C3	-13.990	204.177	112.851	C.2	1	UNK0	0.000	
5	  C4	-15.319	204.704	112.400	C.2	1	UNK0	0.000	
6	  N2	-16.655	204.190	112.675	N.2	1	UNK0	0.000	
7	  N3	-16.555	205.743	110.613	N.2	1	UNK0	0.000	
8	  C5	-15.259	205.521	111.135	C.2	1	UNK0	0.000	
9	  N4	-14.121	205.554	110.349	N.2	1	UNK0	0.000	
10	  N5	-11.867	205.283	110.070	N.pl3	1	UNK0	0.000	
11	  C6	-8.863	206.358	112.065	C.2	1	UNK0	0.000	
12	  C7	-7.933	206.505	111.017	C.2	1	UNK0	0.000	
13	  C8	-8.313	206.235	109.696	C.2	1	UNK0	0.000	
14	  C9	-9.632	205.848	109.426	C.2	1	UNK0	0.000	
15	 C10	-10.584	205.733	110.437	C.2	1	UNK0	0.000	
16	 C11	-10.174	205.973	111.764	C.2	1	UNK0	0.000	
17	  N6	-6.249	208.520	111.473	N.3	1	UNK0	0.000	
18	  S1	-6.226	206.909	111.436	S.o2	1	UNK0	0.000	
19	  O1	-5.348	206.527	110.336	O.2	1	UNK0	0.000	
20	  O2	-5.969	206.443	112.786	O.2	1	UNK0	0.000	
21	  O3	-13.990	203.938	114.180	O.3	1	UNK0	0.000	
22	 C12	-12.720	203.888	114.826	C.3	1	UNK0	0.000	
23	 C13	-12.270	205.296	115.184	C.3	1	UNK0	0.000	
24	 C14	-13.228	205.902	116.202	C.3	1	UNK0	0.000	
25	 C15	-12.776	207.298	116.579	C.3	1	UNK0	0.000	
26	 C16	-11.362	207.268	117.128	C.3	1	UNK0	0.000	
27	 C17	-10.424	206.660	116.120	C.3	1	UNK0	0.000	
28	 C18	-10.875	205.263	115.753	C.3	1	UNK0	0.000	
@<TRIPOS>BOND
1 1 3 1
2 1 9 2
3 1 10 1
4 2 6 1
5 2 7 1
6 3 4 2
7 4 5 1
8 4 21 1
9 5 6 2
10 5 8 1
11 7 8 2
12 8 9 1
13 10 15 1
14 11 12 1
15 11 16 2
16 12 13 2
17 12 18 1
18 13 14 1
19 14 15 2
20 15 16 1
21 17 18 1
22 18 19 2
23 18 20 2
24 21 22 1
25 22 23 1
26 23 24 1
27 23 28 1
28 24 25 1
29 25 26 1
30 26 27 1
31 27 28 1
@<TRIPOS>SUBSTRUCTURE
1	UNK0	1	GROUP	1 ****	UNK
