# created with PyMOL 2.5.0
@<TRIPOS>MOLECULE
cocrystal/docking_cocrystal/2iw8_4SP_LIG.pdb
28 31 1                 
SMALL
USER_CHARGES
@<TRIPOS>ATOM
1	  C1	-9.579	207.316	113.200	C.2	1	UNK0	0.000	
2	  C2	-12.402	204.005	111.443	C.3	1	UNK0	0.000	
3	  N1	-10.315	207.160	114.367	N.2	1	UNK0	0.000	
4	  C3	-11.391	206.274	114.399	C.2	1	UNK0	0.000	
5	  C4	-11.818	205.557	113.149	C.2	1	UNK0	0.000	
6	  N2	-12.647	204.364	112.975	N.2	1	UNK0	0.000	
7	  N3	-11.282	204.992	110.862	N.2	1	UNK0	0.000	
8	  C5	-10.982	205.881	111.946	C.2	1	UNK0	0.000	
9	  N4	-9.845	206.654	112.016	N.2	1	UNK0	0.000	
10	  N5	-8.501	208.124	113.113	N.pl3	1	UNK0	0.000	
11	  C6	-7.030	208.950	116.478	C.2	1	UNK0	0.000	
12	  C7	-5.662	208.792	116.170	C.2	1	UNK0	0.000	
13	  C8	-5.260	208.498	114.875	C.2	1	UNK0	0.000	
14	  C9	-6.223	208.304	113.875	C.2	1	UNK0	0.000	
15	 C10	-7.589	208.403	114.170	C.2	1	UNK0	0.000	
16	 C11	-7.964	208.748	115.467	C.2	1	UNK0	0.000	
17	  N6	-3.900	207.388	117.585	N.3	1	UNK0	0.000	
18	  S1	-4.459	208.889	117.515	S.o2	1	UNK0	0.000	
19	  O1	-5.054	209.023	118.811	O.2	1	UNK0	0.000	
20	  O2	-3.270	209.619	117.109	O.2	1	UNK0	0.000	
21	  O3	-12.354	206.278	115.354	O.3	1	UNK0	0.000	
22	 C12	-12.212	207.274	116.370	C.3	1	UNK0	0.000	
23	 C13	-11.166	206.859	117.406	C.3	1	UNK0	0.000	
24	 C14	-10.905	208.015	118.345	C.3	1	UNK0	0.000	
25	 C15	-9.890	207.618	119.382	C.3	1	UNK0	0.000	
26	 C16	-10.369	206.421	120.165	C.3	1	UNK0	0.000	
27	 C17	-10.650	205.263	119.237	C.3	1	UNK0	0.000	
28	 C18	-11.665	205.661	118.189	C.3	1	UNK0	0.000	
@<TRIPOS>BOND
1 1 3 1
2 1 9 2
3 1 10 1
4 2 6 1
5 2 7 1
6 3 4 2
7 4 5 1
8 4 21 1
9 5 6 2
10 5 8 1
11 7 8 2
12 8 9 1
13 10 15 1
14 11 12 1
15 11 16 2
16 12 13 2
17 12 18 1
18 13 14 1
19 14 15 2
20 15 16 1
21 17 18 1
22 18 19 2
23 18 20 2
24 21 22 1
25 22 23 1
26 23 24 1
27 23 28 1
28 24 25 1
29 25 26 1
30 26 27 1
31 27 28 1
@<TRIPOS>SUBSTRUCTURE
1	UNK0	1	GROUP	1 ****	UNK
