# created with PyMOL 2.5.0
@<TRIPOS>MOLECULE
cocrystal/docking_cocrystal/2iw8_4SP_LIG.pdb
50 53 1                 
SMALL
USER_CHARGES
@<TRIPOS>ATOM
1	 H21	-11.310	205.660	117.570	 H	1	UNK0	0.000	
2	 H22	-12.590	205.380	118.760	 H	1	UNK0	0.000	
3	 H19	-11.020	207.120	119.540	 H	1	UNK0	0.000	
4	 H08	-5.440	208.280	115.060	 H	1	UNK0	0.000	
5	 H20	-11.330	208.060	118.080	 H	1	UNK0	0.000	
6	 H01	-16.490	208.100	111.300	 H	1	UNK0	0.000	
7	 H05	-7.140	209.530	113.340	 H	1	UNK0	0.000	
8	 H04	-8.860	207.560	116.820	 H	1	UNK0	0.000	
9	 H11	-14.240	204.540	117.000	 H	1	UNK0	0.000	
10	 H03	-10.520	207.120	111.680	 H	1	UNK0	0.000	
11	 H09	-4.880	209.830	115.340	 H	1	UNK0	0.000	
12	 H02	-17.010	206.490	110.780	 H	1	UNK0	0.000	
13	 H10	-12.780	204.560	116.020	 H	1	UNK0	0.000	
14	 H07	-10.430	206.400	115.350	 H	1	UNK0	0.000	
15	 H14	-15.180	207.350	116.900	 H	1	UNK0	0.000	
16	 H13	-14.910	206.380	118.350	 H	1	UNK0	0.000	
17	 H12	-12.820	207.140	116.290	 H	1	UNK0	0.000	
18	 H15	-14.890	208.770	118.900	 H	1	UNK0	0.000	
19	 H18	-12.670	208.910	119.960	 H	1	UNK0	0.000	
20	 H17	-13.390	207.310	120.180	 H	1	UNK0	0.000	
21	 H16	-13.620	209.060	117.700	 H	1	UNK0	0.000	
22	 H06	-8.720	208.330	111.930	 H	1	UNK0	0.000	
23	  C1	-11.900	206.400	112.760	C.2	1	UNK0	0.000	
24	  C2	-16.230	207.050	111.290	C.3	1	UNK0	0.000	
25	  N1	-12.450	206.010	113.970	N.2	1	UNK0	0.000	
26	  C3	-13.830	205.900	114.070	C.2	1	UNK0	0.000	
27	  C4	-14.730	206.030	112.870	C.2	1	UNK0	0.000	
28	  N2	-16.080	206.540	112.810	N.2	1	UNK0	0.000	
29	  N3	-14.800	206.830	110.580	N.2	1	UNK0	0.000	
30	  C5	-13.950	206.290	111.580	C.2	1	UNK0	0.000	
31	  N4	-12.600	206.590	111.600	N.2	1	UNK0	0.000	
32	  N5	-10.600	206.690	112.590	N.pl3	1	UNK0	0.000	
33	  C6	-8.830	207.750	115.750	C.2	1	UNK0	0.000	
34	  C7	-7.890	208.640	115.190	C.2	1	UNK0	0.000	
35	  C8	-7.850	208.850	113.800	C.2	1	UNK0	0.000	
36	  C9	-8.760	208.160	112.990	C.2	1	UNK0	0.000	
37	 C10	-9.730	207.330	113.530	C.2	1	UNK0	0.000	
38	 C11	-9.730	207.090	114.910	C.2	1	UNK0	0.000	
39	  N6	-5.300	209.000	115.760	N.3	1	UNK0	0.000	
40	  S1	-6.760	209.540	116.260	S.o2	1	UNK0	0.000	
41	  O1	-6.900	209.090	117.630	O.2	1	UNK0	0.000	
42	  O2	-6.740	210.940	115.910	O.2	1	UNK0	0.000	
43	  O3	-14.490	205.420	115.170	O.3	1	UNK0	0.000	
44	 C12	-13.650	205.160	116.310	C.3	1	UNK0	0.000	
45	 C13	-13.240	206.420	117.010	C.3	1	UNK0	0.000	
46	 C14	-14.440	207.080	117.660	C.3	1	UNK0	0.000	
47	 C15	-14.020	208.330	118.410	C.3	1	UNK0	0.000	
48	 C16	-12.970	208.000	119.440	C.3	1	UNK0	0.000	
49	 C17	-11.770	207.360	118.780	C.3	1	UNK0	0.000	
50	 C18	-12.200	206.110	118.050	C.3	1	UNK0	0.000	
@<TRIPOS>BOND
1 23 25 1
2 23 31 2
3 23 32 1
4 6 24 1
5 12 24 1
6 24 28 1
7 24 29 1
8 25 26 2
9 26 27 1
10 26 43 1
11 27 28 2
12 27 30 1
13 29 30 2
14 30 31 1
15 10 32 1
16 32 37 1
17 8 33 1
18 33 34 1
19 33 38 2
20 34 35 2
21 34 40 1
22 7 35 1
23 35 36 1
24 22 36 1
25 36 37 2
26 37 38 1
27 14 38 1
28 4 39 1
29 11 39 1
30 39 40 1
31 40 41 2
32 40 42 2
33 43 44 1
34 9 44 1
35 13 44 1
36 44 45 1
37 17 45 1
38 45 46 1
39 45 50 1
40 15 46 1
41 16 46 1
42 46 47 1
43 18 47 1
44 21 47 1
45 47 48 1
46 19 48 1
47 20 48 1
48 48 49 1
49 3 49 1
50 5 49 1
51 49 50 1
52 1 50 1
53 2 50 1
@<TRIPOS>SUBSTRUCTURE
1	UNK0	1	GROUP	1 ****	UNK
