# created with PyMOL 2.5.0
@<TRIPOS>MOLECULE
cocrystal/docking_cocrystal/2iw8_4SP_LIG.pdb
50 53 1                 
SMALL
USER_CHARGES
@<TRIPOS>ATOM
1	 H21	-13.170	203.540	117.980	 H	1	UNK0	0.000	
2	 H22	-13.280	204.760	119.250	 H	1	UNK0	0.000	
3	 H19	-11.390	203.240	119.650	 H	1	UNK0	0.000	
4	 H08	-7.050	208.840	110.800	 H	1	UNK0	0.000	
5	 H20	-10.720	203.640	118.070	 H	1	UNK0	0.000	
6	 H01	-19.600	205.260	115.120	 H	1	UNK0	0.000	
7	 H05	-10.360	207.040	109.130	 H	1	UNK0	0.000	
8	 H04	-9.520	206.700	113.380	 H	1	UNK0	0.000	
9	 H11	-13.890	206.820	116.270	 H	1	UNK0	0.000	
10	 H03	-14.490	206.930	111.170	 H	1	UNK0	0.000	
11	 H09	-7.430	208.200	109.270	 H	1	UNK0	0.000	
12	 H02	-19.220	204.140	113.790	 H	1	UNK0	0.000	
13	 H10	-14.520	206.260	117.810	 H	1	UNK0	0.000	
14	 H07	-11.920	206.530	113.820	 H	1	UNK0	0.000	
15	 H14	-11.770	207.510	117.210	 H	1	UNK0	0.000	
16	 H13	-12.460	207.120	118.790	 H	1	UNK0	0.000	
17	 H12	-12.010	205.140	116.510	 H	1	UNK0	0.000	
18	 H15	-10.020	207.210	118.940	 H	1	UNK0	0.000	
19	 H18	-9.610	204.940	119.840	 H	1	UNK0	0.000	
20	 H17	-11.170	205.580	120.370	 H	1	UNK0	0.000	
21	 H16	-9.870	206.020	117.650	 H	1	UNK0	0.000	
22	 H06	-12.750	206.870	109.610	 H	1	UNK0	0.000	
23	  C1	-14.660	206.200	113.000	C.2	1	UNK0	0.000	
24	  C2	-18.810	204.920	114.450	C.3	1	UNK0	0.000	
25	  N1	-14.140	205.520	114.090	N.2	1	UNK0	0.000	
26	  C3	-15.020	205.030	115.050	C.2	1	UNK0	0.000	
27	  C4	-16.490	205.270	114.940	C.2	1	UNK0	0.000	
28	  N2	-17.570	204.340	115.280	N.2	1	UNK0	0.000	
29	  N3	-18.270	206.150	113.570	N.2	1	UNK0	0.000	
30	  C5	-16.870	206.230	113.840	C.2	1	UNK0	0.000	
31	  N4	-15.990	206.480	112.800	N.2	1	UNK0	0.000	
32	  N5	-13.920	206.550	111.910	N.pl3	1	UNK0	0.000	
33	  C6	-10.210	206.750	112.550	C.2	1	UNK0	0.000	
34	  C7	-9.770	206.900	111.230	C.2	1	UNK0	0.000	
35	  C8	-10.680	206.940	110.170	C.2	1	UNK0	0.000	
36	  C9	-12.050	206.850	110.440	C.2	1	UNK0	0.000	
37	 C10	-12.530	206.710	111.750	C.2	1	UNK0	0.000	
38	 C11	-11.590	206.640	112.800	C.2	1	UNK0	0.000	
39	  N6	-7.770	208.400	110.210	N.3	1	UNK0	0.000	
40	  S1	-7.990	206.940	110.890	S.o2	1	UNK0	0.000	
41	  O1	-7.670	206.010	109.830	O.2	1	UNK0	0.000	
42	  O2	-7.250	207.000	112.120	O.2	1	UNK0	0.000	
43	  O3	-14.660	204.840	116.340	O.3	1	UNK0	0.000	
44	 C12	-13.960	205.950	116.930	C.3	1	UNK0	0.000	
45	 C13	-12.570	205.520	117.370	C.3	1	UNK0	0.000	
46	 C14	-11.870	206.720	117.970	C.3	1	UNK0	0.000	
47	 C15	-10.500	206.350	118.480	C.3	1	UNK0	0.000	
48	 C16	-10.600	205.230	119.500	C.3	1	UNK0	0.000	
49	 C17	-11.310	204.030	118.900	C.3	1	UNK0	0.000	
50	 C18	-12.680	204.420	118.410	C.3	1	UNK0	0.000	
@<TRIPOS>BOND
1 23 25 1
2 23 31 2
3 23 32 1
4 6 24 1
5 12 24 1
6 24 28 1
7 24 29 1
8 25 26 2
9 26 27 1
10 26 43 1
11 27 28 2
12 27 30 1
13 29 30 2
14 30 31 1
15 10 32 1
16 32 37 1
17 8 33 1
18 33 34 1
19 33 38 2
20 34 35 2
21 34 40 1
22 7 35 1
23 35 36 1
24 22 36 1
25 36 37 2
26 37 38 1
27 14 38 1
28 4 39 1
29 11 39 1
30 39 40 1
31 40 41 2
32 40 42 2
33 43 44 1
34 9 44 1
35 13 44 1
36 44 45 1
37 17 45 1
38 45 46 1
39 45 50 1
40 15 46 1
41 16 46 1
42 46 47 1
43 18 47 1
44 21 47 1
45 47 48 1
46 19 48 1
47 20 48 1
48 48 49 1
49 3 49 1
50 5 49 1
51 49 50 1
52 1 50 1
53 2 50 1
@<TRIPOS>SUBSTRUCTURE
1	UNK0	1	GROUP	1 ****	UNK
