# created with PyMOL 2.5.0
@<TRIPOS>MOLECULE
cocrystal/docking_cocrystal/2iw8_4SP_LIG.pdb
50 53 1                 
SMALL
USER_CHARGES
@<TRIPOS>ATOM
1	 H21	-9.990	205.380	115.510	 H	1	UNK0	0.000	
2	 H22	-10.750	205.290	117.100	 H	1	UNK0	0.000	
3	 H19	-9.260	207.250	116.940	 H	1	UNK0	0.000	
4	 H08	-6.530	209.080	111.330	 H	1	UNK0	0.000	
5	 H20	-10.160	207.840	115.530	 H	1	UNK0	0.000	
6	 H01	-17.900	206.030	111.980	 H	1	UNK0	0.000	
7	 H05	-7.020	206.400	109.450	 H	1	UNK0	0.000	
8	 H04	-8.240	206.920	113.570	 H	1	UNK0	0.000	
9	 H11	-12.710	203.940	116.170	 H	1	UNK0	0.000	
10	 H03	-11.620	205.800	109.500	 H	1	UNK0	0.000	
11	 H09	-4.910	209.060	111.530	 H	1	UNK0	0.000	
12	 H02	-17.630	204.540	111.050	 H	1	UNK0	0.000	
13	 H10	-11.760	203.910	114.690	 H	1	UNK0	0.000	
14	 H07	-10.520	206.270	112.970	 H	1	UNK0	0.000	
15	 H14	-14.050	206.620	115.970	 H	1	UNK0	0.000	
16	 H13	-13.160	206.020	117.370	 H	1	UNK0	0.000	
17	 H12	-12.020	206.470	114.600	 H	1	UNK0	0.000	
18	 H15	-13.320	208.470	117.420	 H	1	UNK0	0.000	
19	 H18	-10.900	208.990	117.580	 H	1	UNK0	0.000	
20	 H17	-11.280	207.440	118.330	 H	1	UNK0	0.000	
21	 H16	-12.580	208.570	115.820	 H	1	UNK0	0.000	
22	 H06	-9.330	205.710	108.880	 H	1	UNK0	0.000	
23	  C1	-12.510	205.420	111.230	C.2	1	UNK0	0.000	
24	  C2	-17.150	205.340	111.610	C.3	1	UNK0	0.000	
25	  N1	-12.480	204.850	112.490	N.2	1	UNK0	0.000	
26	  C3	-13.680	204.650	113.170	C.2	1	UNK0	0.000	
27	  C4	-14.970	205.170	112.610	C.2	1	UNK0	0.000	
28	  N2	-16.330	204.700	112.840	N.2	1	UNK0	0.000	
29	  N3	-16.080	206.110	110.690	N.2	1	UNK0	0.000	
30	  C5	-14.820	205.900	111.300	C.2	1	UNK0	0.000	
31	  N4	-13.640	205.860	110.580	N.2	1	UNK0	0.000	
32	  N5	-11.380	205.530	110.450	N.pl3	1	UNK0	0.000	
33	  C6	-8.470	206.680	112.540	C.2	1	UNK0	0.000	
34	  C7	-7.480	206.740	111.540	C.2	1	UNK0	0.000	
35	  C8	-7.790	206.390	110.220	C.2	1	UNK0	0.000	
36	  C9	-9.100	206.010	109.900	C.2	1	UNK0	0.000	
37	 C10	-10.110	205.980	110.860	C.2	1	UNK0	0.000	
38	 C11	-9.770	206.300	112.190	C.2	1	UNK0	0.000	
39	  N6	-5.780	208.750	111.960	N.3	1	UNK0	0.000	
40	  S1	-5.790	207.140	112.030	S.o2	1	UNK0	0.000	
41	  O1	-4.860	206.670	111.010	O.2	1	UNK0	0.000	
42	  O2	-5.620	206.760	113.420	O.2	1	UNK0	0.000	
43	  O3	-13.760	204.500	114.510	O.3	1	UNK0	0.000	
44	 C12	-12.530	204.470	115.230	C.3	1	UNK0	0.000	
45	 C13	-12.070	205.890	115.520	C.3	1	UNK0	0.000	
46	 C14	-13.070	206.580	116.440	C.3	1	UNK0	0.000	
47	 C15	-12.610	207.990	116.750	C.3	1	UNK0	0.000	
48	 C16	-11.230	207.970	117.380	C.3	1	UNK0	0.000	
49	 C17	-10.250	207.280	116.470	C.3	1	UNK0	0.000	
50	 C18	-10.710	205.870	116.170	C.3	1	UNK0	0.000	
@<TRIPOS>BOND
1 23 25 1
2 23 31 2
3 23 32 1
4 6 24 1
5 12 24 1
6 24 28 1
7 24 29 1
8 25 26 2
9 26 27 1
10 26 43 1
11 27 28 2
12 27 30 1
13 29 30 2
14 30 31 1
15 10 32 1
16 32 37 1
17 8 33 1
18 33 34 1
19 33 38 2
20 34 35 2
21 34 40 1
22 7 35 1
23 35 36 1
24 22 36 1
25 36 37 2
26 37 38 1
27 14 38 1
28 4 39 1
29 11 39 1
30 39 40 1
31 40 41 2
32 40 42 2
33 43 44 1
34 9 44 1
35 13 44 1
36 44 45 1
37 17 45 1
38 45 46 1
39 45 50 1
40 15 46 1
41 16 46 1
42 46 47 1
43 18 47 1
44 21 47 1
45 47 48 1
46 19 48 1
47 20 48 1
48 48 49 1
49 3 49 1
50 5 49 1
51 49 50 1
52 1 50 1
53 2 50 1
@<TRIPOS>SUBSTRUCTURE
1	UNK0	1	GROUP	1 ****	UNK
