# created with PyMOL 2.5.0
@<TRIPOS>MOLECULE
cocrystal/docking_cocrystal/2iw8_4SP_LIG.pdb
28 31 1                 
SMALL
USER_CHARGES
@<TRIPOS>ATOM
1	  C1	-12.954	205.729	112.083	C.2	1	UNK0	0.000	
2	  C2	-17.647	205.429	112.035	C.3	1	UNK0	0.000	
3	  N1	-13.051	205.183	113.355	N.2	1	UNK0	0.000	
4	  C3	-14.300	204.871	113.860	C.2	1	UNK0	0.000	
5	  C4	-15.507	204.839	112.962	C.2	1	UNK0	0.000	
6	  N2	-16.917	204.789	113.320	N.2	1	UNK0	0.000	
7	  N3	-16.486	205.866	111.011	N.2	1	UNK0	0.000	
8	  C5	-15.269	205.494	111.616	C.2	1	UNK0	0.000	
9	  N4	-14.019	205.960	111.240	N.2	1	UNK0	0.000	
10	  N5	-11.773	206.160	111.548	N.pl3	1	UNK0	0.000	
11	  C6	-8.924	206.339	113.985	C.2	1	UNK0	0.000	
12	  C7	-8.186	207.375	113.390	C.2	1	UNK0	0.000	
13	  C8	-8.668	208.019	112.240	C.2	1	UNK0	0.000	
14	  C9	-9.867	207.589	111.662	C.2	1	UNK0	0.000	
15	 C10	-10.616	206.553	112.228	C.2	1	UNK0	0.000	
16	 C11	-10.125	205.948	113.399	C.2	1	UNK0	0.000	
17	  N6	-5.609	207.727	112.662	N.3	1	UNK0	0.000	
18	  S1	-6.510	207.734	114.014	S.o2	1	UNK0	0.000	
19	  O1	-6.068	206.617	114.811	O.2	1	UNK0	0.000	
20	  O2	-6.436	209.106	114.462	O.2	1	UNK0	0.000	
21	  O3	-14.500	204.324	115.088	O.3	1	UNK0	0.000	
22	 C12	-13.362	204.238	115.914	C.3	1	UNK0	0.000	
23	 C13	-12.961	205.637	116.483	C.3	1	UNK0	0.000	
24	 C14	-13.992	206.068	117.495	C.3	1	UNK0	0.000	
25	 C15	-13.597	207.406	118.081	C.3	1	UNK0	0.000	
26	 C16	-12.240	207.319	118.723	C.3	1	UNK0	0.000	
27	 C17	-11.209	206.898	117.712	C.3	1	UNK0	0.000	
28	 C18	-11.605	205.560	117.115	C.3	1	UNK0	0.000	
@<TRIPOS>BOND
1 1 3 1
2 1 9 2
3 1 10 1
4 2 6 1
5 2 7 1
6 3 4 2
7 4 5 1
8 4 21 1
9 5 6 2
10 5 8 1
11 7 8 2
12 8 9 1
13 10 15 1
14 11 12 1
15 11 16 2
16 12 13 2
17 12 18 1
18 13 14 1
19 14 15 2
20 15 16 1
21 17 18 1
22 18 19 2
23 18 20 2
24 21 22 1
25 22 23 1
26 23 24 1
27 23 28 1
28 24 25 1
29 25 26 1
30 26 27 1
31 27 28 1
@<TRIPOS>SUBSTRUCTURE
1	UNK0	1	GROUP	1 ****	UNK
