# created with PyMOL 2.5.0
@<TRIPOS>MOLECULE
cocrystal/docking_cocrystal/2iw8_4SP_LIG.pdb
50 53 1                 
SMALL
USER_CHARGES
@<TRIPOS>ATOM
1	 H21	-13.450	203.630	118.600	 H	1	UNK0	0.000	
2	 H22	-13.670	204.910	119.790	 H	1	UNK0	0.000	
3	 H19	-11.280	204.350	119.550	 H	1	UNK0	0.000	
4	 H08	-7.840	206.730	112.930	 H	1	UNK0	0.000	
5	 H20	-11.360	204.700	117.820	 H	1	UNK0	0.000	
6	 H01	-18.450	208.270	112.960	 H	1	UNK0	0.000	
7	 H05	-11.600	205.950	110.530	 H	1	UNK0	0.000	
8	 H04	-10.670	205.680	114.760	 H	1	UNK0	0.000	
9	 H11	-15.870	205.530	118.750	 H	1	UNK0	0.000	
10	 H03	-14.760	203.310	112.250	 H	1	UNK0	0.000	
11	 H09	-8.150	206.750	111.230	 H	1	UNK0	0.000	
12	 H02	-19.430	206.750	112.660	 H	1	UNK0	0.000	
13	 H10	-15.630	204.160	117.680	 H	1	UNK0	0.000	
14	 H07	-12.620	204.190	115.060	 H	1	UNK0	0.000	
15	 H14	-14.200	207.630	117.300	 H	1	UNK0	0.000	
16	 H13	-14.130	207.270	119.020	 H	1	UNK0	0.000	
17	 H12	-13.540	205.320	116.780	 H	1	UNK0	0.000	
18	 H15	-12.050	208.350	118.270	 H	1	UNK0	0.000	
19	 H18	-10.450	206.630	119.050	 H	1	UNK0	0.000	
20	 H17	-11.890	206.680	120.070	 H	1	UNK0	0.000	
21	 H16	-11.810	207.080	117.060	 H	1	UNK0	0.000	
22	 H06	-13.540	204.460	110.890	 H	1	UNK0	0.000	
23	  C1	-15.380	204.160	113.770	C.2	1	UNK0	0.000	
24	  C2	-18.510	207.200	113.030	C.3	1	UNK0	0.000	
25	  N1	-15.400	204.410	115.140	N.2	1	UNK0	0.000	
26	  C3	-16.320	205.350	115.590	C.2	1	UNK0	0.000	
27	  C4	-16.930	206.320	114.600	C.2	1	UNK0	0.000	
28	  N2	-18.270	206.850	114.580	N.2	1	UNK0	0.000	
29	  N3	-17.250	206.660	112.210	N.2	1	UNK0	0.000	
30	  C5	-16.410	206.090	113.180	C.2	1	UNK0	0.000	
31	  N4	-16.160	204.820	112.870	N.2	1	UNK0	0.000	
32	  N5	-14.400	203.470	113.190	N.pl3	1	UNK0	0.000	
33	  C6	-11.280	205.400	113.890	C.2	1	UNK0	0.000	
34	  C7	-10.990	205.890	112.620	C.2	1	UNK0	0.000	
35	  C8	-11.800	205.550	111.510	C.2	1	UNK0	0.000	
36	  C9	-12.900	204.700	111.730	C.2	1	UNK0	0.000	
37	 C10	-13.210	204.200	112.990	C.2	1	UNK0	0.000	
38	 C11	-12.380	204.550	114.070	C.2	1	UNK0	0.000	
39	  N6	-8.380	206.350	112.140	N.3	1	UNK0	0.000	
40	  S1	-9.710	207.170	112.400	S.o2	1	UNK0	0.000	
41	  O1	-9.870	207.870	111.160	O.2	1	UNK0	0.000	
42	  O2	-9.410	207.810	113.650	O.2	1	UNK0	0.000	
43	  O3	-16.120	206.000	116.770	O.3	1	UNK0	0.000	
44	 C12	-15.450	205.240	117.780	C.3	1	UNK0	0.000	
45	 C13	-13.960	205.540	117.760	C.3	1	UNK0	0.000	
46	 C14	-13.710	207.010	118.050	C.3	1	UNK0	0.000	
47	 C15	-12.220	207.290	118.050	C.3	1	UNK0	0.000	
48	 C16	-11.520	206.430	119.070	C.3	1	UNK0	0.000	
49	 C17	-11.780	204.970	118.790	C.3	1	UNK0	0.000	
50	 C18	-13.260	204.690	118.800	C.3	1	UNK0	0.000	
@<TRIPOS>BOND
1 23 25 1
2 23 31 2
3 23 32 1
4 6 24 1
5 12 24 1
6 24 28 1
7 24 29 1
8 25 26 2
9 26 27 1
10 26 43 1
11 27 28 2
12 27 30 1
13 29 30 2
14 30 31 1
15 10 32 1
16 32 37 1
17 8 33 1
18 33 34 1
19 33 38 2
20 34 35 2
21 34 40 1
22 7 35 1
23 35 36 1
24 22 36 1
25 36 37 2
26 37 38 1
27 14 38 1
28 4 39 1
29 11 39 1
30 39 40 1
31 40 41 2
32 40 42 2
33 43 44 1
34 9 44 1
35 13 44 1
36 44 45 1
37 17 45 1
38 45 46 1
39 45 50 1
40 15 46 1
41 16 46 1
42 46 47 1
43 18 47 1
44 21 47 1
45 47 48 1
46 19 48 1
47 20 48 1
48 48 49 1
49 3 49 1
50 5 49 1
51 49 50 1
52 1 50 1
53 2 50 1
@<TRIPOS>SUBSTRUCTURE
1	UNK0	1	GROUP	1 ****	UNK
