# created with PyMOL 2.5.0
@<TRIPOS>MOLECULE
cocrystal/docking_cocrystal/2iw8_4SP_LIG.pdb
50 53 1                 
SMALL
USER_CHARGES
@<TRIPOS>ATOM
1	 H21	-12.160	205.400	118.010	 H	1	UNK0	0.000	
2	 H22	-12.900	206.590	119.080	 H	1	UNK0	0.000	
3	 H19	-11.440	205.070	120.340	 H	1	UNK0	0.000	
4	 H08	-3.090	207.650	118.190	 H	1	UNK0	0.000	
5	 H20	-10.070	205.500	119.310	 H	1	UNK0	0.000	
6	 H01	-13.400	204.420	111.340	 H	1	UNK0	0.000	
7	 H05	-4.220	208.430	115.260	 H	1	UNK0	0.000	
8	 H04	-7.440	209.590	117.940	 H	1	UNK0	0.000	
9	 H11	-12.040	208.740	116.250	 H	1	UNK0	0.000	
10	 H03	-8.010	208.180	112.690	 H	1	UNK0	0.000	
11	 H09	-4.400	207.460	119.270	 H	1	UNK0	0.000	
12	 H02	-12.210	203.220	111.930	 H	1	UNK0	0.000	
13	 H10	-13.330	207.970	117.160	 H	1	UNK0	0.000	
14	 H07	-9.060	209.230	116.110	 H	1	UNK0	0.000	
15	 H14	-10.660	209.390	118.120	 H	1	UNK0	0.000	
16	 H13	-12.020	208.940	119.150	 H	1	UNK0	0.000	
17	 H12	-10.420	207.030	117.400	 H	1	UNK0	0.000	
18	 H15	-9.930	209.060	120.460	 H	1	UNK0	0.000	
19	 H18	-10.000	206.770	121.420	 H	1	UNK0	0.000	
20	 H17	-11.630	207.400	121.110	 H	1	UNK0	0.000	
21	 H16	-9.170	207.880	119.380	 H	1	UNK0	0.000	
22	 H06	-5.870	208.110	113.470	 H	1	UNK0	0.000	
23	  C1	-9.580	207.550	113.670	C.2	1	UNK0	0.000	
24	  C2	-12.490	204.290	111.960	C.3	1	UNK0	0.000	
25	  N1	-10.370	207.490	114.810	N.2	1	UNK0	0.000	
26	  C3	-11.490	206.660	114.840	C.2	1	UNK0	0.000	
27	  C4	-11.900	205.900	113.610	C.2	1	UNK0	0.000	
28	  N2	-12.780	204.740	113.460	N.2	1	UNK0	0.000	
29	  N3	-11.300	205.190	111.380	N.2	1	UNK0	0.000	
30	  C5	-11.000	206.120	112.430	C.2	1	UNK0	0.000	
31	  N4	-9.830	206.840	112.510	N.2	1	UNK0	0.000	
32	  N5	-8.460	208.300	113.590	N.pl3	1	UNK0	0.000	
33	  C6	-7.090	209.230	116.970	C.2	1	UNK0	0.000	
34	  C7	-5.720	208.990	116.730	C.2	1	UNK0	0.000	
35	  C8	-5.280	208.610	115.470	C.2	1	UNK0	0.000	
36	  C9	-6.210	208.410	114.440	C.2	1	UNK0	0.000	
37	 C10	-7.580	208.590	114.670	C.2	1	UNK0	0.000	
38	 C11	-7.990	209.020	115.930	C.2	1	UNK0	0.000	
39	  N6	-4.090	207.580	118.290	N.3	1	UNK0	0.000	
40	  S1	-4.570	209.100	118.120	S.o2	1	UNK0	0.000	
41	  O1	-5.210	209.330	119.380	O.2	1	UNK0	0.000	
42	  O2	-3.330	209.750	117.730	O.2	1	UNK0	0.000	
43	  O3	-12.490	206.760	115.750	O.3	1	UNK0	0.000	
44	 C12	-12.340	207.800	116.720	C.3	1	UNK0	0.000	
45	 C13	-11.360	207.390	117.820	C.3	1	UNK0	0.000	
46	 C14	-11.080	208.580	118.710	C.3	1	UNK0	0.000	
47	 C15	-10.130	208.190	119.810	C.3	1	UNK0	0.000	
48	 C16	-10.700	207.060	120.630	C.3	1	UNK0	0.000	
49	 C17	-11.000	205.870	119.750	C.3	1	UNK0	0.000	
50	 C18	-11.950	206.260	118.640	C.3	1	UNK0	0.000	
@<TRIPOS>BOND
1 23 25 1
2 23 31 2
3 23 32 1
4 6 24 1
5 12 24 1
6 24 28 1
7 24 29 1
8 25 26 2
9 26 27 1
10 26 43 1
11 27 28 2
12 27 30 1
13 29 30 2
14 30 31 1
15 10 32 1
16 32 37 1
17 8 33 1
18 33 34 1
19 33 38 2
20 34 35 2
21 34 40 1
22 7 35 1
23 35 36 1
24 22 36 1
25 36 37 2
26 37 38 1
27 14 38 1
28 4 39 1
29 11 39 1
30 39 40 1
31 40 41 2
32 40 42 2
33 43 44 1
34 9 44 1
35 13 44 1
36 44 45 1
37 17 45 1
38 45 46 1
39 45 50 1
40 15 46 1
41 16 46 1
42 46 47 1
43 18 47 1
44 21 47 1
45 47 48 1
46 19 48 1
47 20 48 1
48 48 49 1
49 3 49 1
50 5 49 1
51 49 50 1
52 1 50 1
53 2 50 1
@<TRIPOS>SUBSTRUCTURE
1	UNK0	1	GROUP	1 ****	UNK
