# created with PyMOL 2.5.0
@<TRIPOS>MOLECULE
cocrystal/docking_cocrystal/2iw8_4SP_LIG.pdb
50 53 1                 
SMALL
USER_CHARGES
@<TRIPOS>ATOM
1	 H21	-12.960	204.390	117.100	 H	1	UNK0	0.000	
2	 H22	-13.870	205.690	117.880	 H	1	UNK0	0.000	
3	 H19	-11.400	206.120	117.860	 H	1	UNK0	0.000	
4	 H08	-7.540	208.200	110.610	 H	1	UNK0	0.000	
5	 H20	-11.420	206.070	116.090	 H	1	UNK0	0.000	
6	 H01	-19.340	207.220	112.710	 H	1	UNK0	0.000	
7	 H05	-8.900	207.050	109.930	 H	1	UNK0	0.000	
8	 H04	-10.370	207.260	114.000	 H	1	UNK0	0.000	
9	 H11	-16.150	205.270	116.090	 H	1	UNK0	0.000	
10	 H03	-13.450	206.130	109.710	 H	1	UNK0	0.000	
11	 H09	-6.430	208.830	111.600	 H	1	UNK0	0.000	
12	 H02	-19.740	205.680	111.910	 H	1	UNK0	0.000	
13	 H10	-15.090	203.900	116.390	 H	1	UNK0	0.000	
14	 H07	-12.530	206.500	113.240	 H	1	UNK0	0.000	
15	 H14	-15.020	207.290	114.730	 H	1	UNK0	0.000	
16	 H13	-15.140	207.330	116.490	 H	1	UNK0	0.000	
17	 H12	-13.350	205.420	114.910	 H	1	UNK0	0.000	
18	 H15	-13.620	209.070	115.730	 H	1	UNK0	0.000	
19	 H18	-11.540	208.400	116.920	 H	1	UNK0	0.000	
20	 H17	-13.000	207.990	117.840	 H	1	UNK0	0.000	
21	 H16	-12.660	207.890	114.820	 H	1	UNK0	0.000	
22	 H06	-11.110	206.280	109.190	 H	1	UNK0	0.000	
23	  C1	-14.350	205.690	111.380	C.2	1	UNK0	0.000	
24	  C2	-18.930	206.310	112.290	C.3	1	UNK0	0.000	
25	  N1	-14.340	205.030	112.610	N.2	1	UNK0	0.000	
26	  C3	-15.450	205.070	113.410	C.2	1	UNK0	0.000	
27	  C4	-16.770	205.420	112.800	C.2	1	UNK0	0.000	
28	  N2	-18.080	205.510	113.380	N.2	1	UNK0	0.000	
29	  N3	-17.910	206.670	111.120	N.2	1	UNK0	0.000	
30	  C5	-16.670	206.090	111.470	C.2	1	UNK0	0.000	
31	  N4	-15.470	206.240	110.810	N.2	1	UNK0	0.000	
32	  N5	-13.230	205.810	110.650	N.pl3	1	UNK0	0.000	
33	  C6	-10.520	207.060	112.940	C.2	1	UNK0	0.000	
34	  C7	-9.480	207.220	112.020	C.2	1	UNK0	0.000	
35	  C8	-9.690	206.940	110.660	C.2	1	UNK0	0.000	
36	  C9	-10.950	206.500	110.240	C.2	1	UNK0	0.000	
37	 C10	-12.010	206.340	111.140	C.2	1	UNK0	0.000	
38	 C11	-11.750	206.610	112.500	C.2	1	UNK0	0.000	
39	  N6	-6.920	207.950	111.380	N.3	1	UNK0	0.000	
40	  S1	-7.870	207.760	112.690	S.o2	1	UNK0	0.000	
41	  O1	-7.330	206.690	113.480	O.2	1	UNK0	0.000	
42	  O2	-8.050	209.100	113.200	O.2	1	UNK0	0.000	
43	  O3	-15.570	204.170	114.430	O.3	1	UNK0	0.000	
44	 C12	-15.260	204.740	115.720	C.3	1	UNK0	0.000	
45	 C13	-14.030	205.650	115.740	C.3	1	UNK0	0.000	
46	 C14	-14.460	207.100	115.650	C.3	1	UNK0	0.000	
47	 C15	-13.270	208.030	115.720	C.3	1	UNK0	0.000	
48	 C16	-12.430	207.760	116.940	C.3	1	UNK0	0.000	
49	 C17	-12.020	206.310	116.980	C.3	1	UNK0	0.000	
50	 C18	-13.250	205.440	117.010	C.3	1	UNK0	0.000	
@<TRIPOS>BOND
1 23 25 1
2 23 31 2
3 23 32 1
4 6 24 1
5 12 24 1
6 24 28 1
7 24 29 1
8 25 26 2
9 26 27 1
10 26 43 1
11 27 28 2
12 27 30 1
13 29 30 2
14 30 31 1
15 10 32 1
16 32 37 1
17 8 33 1
18 33 34 1
19 33 38 2
20 34 35 2
21 34 40 1
22 7 35 1
23 35 36 1
24 22 36 1
25 36 37 2
26 37 38 1
27 14 38 1
28 4 39 1
29 11 39 1
30 39 40 1
31 40 41 2
32 40 42 2
33 43 44 1
34 9 44 1
35 13 44 1
36 44 45 1
37 17 45 1
38 45 46 1
39 45 50 1
40 15 46 1
41 16 46 1
42 46 47 1
43 18 47 1
44 21 47 1
45 47 48 1
46 19 48 1
47 20 48 1
48 48 49 1
49 3 49 1
50 5 49 1
51 49 50 1
52 1 50 1
53 2 50 1
@<TRIPOS>SUBSTRUCTURE
1	UNK0	1	GROUP	1 ****	UNK
