# created with PyMOL 2.5.0
@<TRIPOS>MOLECULE
cocrystal/docking_cocrystal/2iw8_4SP_LIG.pdb
28 31 1                 
SMALL
USER_CHARGES
@<TRIPOS>ATOM
1	  C1	-13.776	205.615	112.642	C.2	1	UNK0	0.000	
2	  C2	-17.891	204.017	114.263	C.3	1	UNK0	0.000	
3	  N1	-13.324	204.319	112.867	N.2	1	UNK0	0.000	
4	  C3	-14.182	203.362	113.394	C.2	1	UNK0	0.000	
5	  C4	-15.661	203.653	113.462	C.2	1	UNK0	0.000	
6	  N2	-16.706	202.929	114.158	N.2	1	UNK0	0.000	
7	  N3	-17.324	205.400	113.668	N.2	1	UNK0	0.000	
8	  C5	-16.015	205.098	113.178	C.2	1	UNK0	0.000	
9	  N4	-15.064	206.039	112.886	N.2	1	UNK0	0.000	
10	  N5	-12.933	206.604	112.257	N.pl3	1	UNK0	0.000	
11	  C6	-9.449	206.878	113.481	C.2	1	UNK0	0.000	
12	  C7	-8.781	206.045	112.571	C.2	1	UNK0	0.000	
13	  C8	-9.486	205.427	111.520	C.2	1	UNK0	0.000	
14	  C9	-10.860	205.651	111.410	C.2	1	UNK0	0.000	
15	 C10	-11.531	206.505	112.291	C.2	1	UNK0	0.000	
16	 C11	-10.816	207.115	113.320	C.2	1	UNK0	0.000	
17	  N6	-6.274	207.066	112.803	N.3	1	UNK0	0.000	
18	  S1	-7.029	205.638	112.794	S.o2	1	UNK0	0.000	
19	  O1	-6.562	204.934	111.620	O.2	1	UNK0	0.000	
20	  O2	-6.822	205.131	114.126	O.2	1	UNK0	0.000	
21	  O3	-13.784	202.638	114.466	O.3	1	UNK0	0.000	
22	 C12	-13.592	203.409	115.670	C.3	1	UNK0	0.000	
23	 C13	-12.175	203.281	116.173	C.3	1	UNK0	0.000	
24	 C14	-11.212	204.029	115.271	C.3	1	UNK0	0.000	
25	 C15	-9.819	203.997	115.819	C.3	1	UNK0	0.000	
26	 C16	-9.764	204.561	117.222	C.3	1	UNK0	0.000	
27	 C17	-10.706	203.795	118.112	C.3	1	UNK0	0.000	
28	 C18	-12.110	203.845	117.575	C.3	1	UNK0	0.000	
@<TRIPOS>BOND
1 1 3 1
2 1 9 2
3 1 10 1
4 2 6 1
5 2 7 1
6 3 4 2
7 4 5 1
8 4 21 1
9 5 6 2
10 5 8 1
11 7 8 2
12 8 9 1
13 10 15 1
14 11 12 1
15 11 16 2
16 12 13 2
17 12 18 1
18 13 14 1
19 14 15 2
20 15 16 1
21 17 18 1
22 18 19 2
23 18 20 2
24 21 22 1
25 22 23 1
26 23 24 1
27 23 28 1
28 24 25 1
29 25 26 1
30 26 27 1
31 27 28 1
@<TRIPOS>SUBSTRUCTURE
1	UNK0	1	GROUP	1 ****	UNK
