# created with PyMOL 2.5.0
@<TRIPOS>MOLECULE
cocrystal/docking_cocrystal/2iw8_4SP_LIG.pdb
28 31 1                 
SMALL
USER_CHARGES
@<TRIPOS>ATOM
1	  C1	-13.038	205.598	112.746	C.2	1	UNK0	0.000	
2	  C2	-17.513	204.458	112.316	C.3	1	UNK0	0.000	
3	  N1	-13.156	205.191	114.066	N.2	1	UNK0	0.000	
4	  C3	-14.421	204.874	114.559	C.2	1	UNK0	0.000	
5	  C4	-15.663	205.090	113.730	C.2	1	UNK0	0.000	
6	  N2	-16.919	204.348	113.807	N.2	1	UNK0	0.000	
7	  N3	-16.442	205.291	111.456	N.2	1	UNK0	0.000	
8	  C5	-15.361	205.568	112.328	C.2	1	UNK0	0.000	
9	  N4	-14.078	205.714	111.858	N.2	1	UNK0	0.000	
10	  N5	-11.877	205.896	112.105	N.pl3	1	UNK0	0.000	
11	  C6	-9.070	206.868	114.397	C.2	1	UNK0	0.000	
12	  C7	-8.307	207.638	113.514	C.2	1	UNK0	0.000	
13	  C8	-8.730	207.829	112.191	C.2	1	UNK0	0.000	
14	  C9	-9.915	207.231	111.761	C.2	1	UNK0	0.000	
15	 C10	-10.719	206.489	112.646	C.2	1	UNK0	0.000	
16	 C11	-10.267	206.309	113.959	C.2	1	UNK0	0.000	
17	  N6	-5.746	208.180	112.864	N.3	1	UNK0	0.000	
18	  S1	-6.763	208.357	114.119	S.o2	1	UNK0	0.000	
19	  O1	-6.177	207.494	115.112	O.2	1	UNK0	0.000	
20	  O2	-6.915	209.775	114.296	O.2	1	UNK0	0.000	
21	  O3	-14.701	204.731	115.883	O.3	1	UNK0	0.000	
22	 C12	-13.670	204.107	116.663	C.3	1	UNK0	0.000	
23	 C13	-12.594	205.092	117.100	C.3	1	UNK0	0.000	
24	 C14	-12.845	205.476	118.543	C.3	1	UNK0	0.000	
25	 C15	-11.763	206.397	119.068	C.3	1	UNK0	0.000	
26	 C16	-10.405	205.753	118.927	C.3	1	UNK0	0.000	
27	 C17	-10.155	205.399	117.486	C.3	1	UNK0	0.000	
28	 C18	-11.234	204.447	116.990	C.3	1	UNK0	0.000	
@<TRIPOS>BOND
1 1 3 1
2 1 9 2
3 1 10 1
4 2 6 1
5 2 7 1
6 3 4 2
7 4 5 1
8 4 21 1
9 5 6 2
10 5 8 1
11 7 8 2
12 8 9 1
13 10 15 1
14 11 12 1
15 11 16 2
16 12 13 2
17 12 18 1
18 13 14 1
19 14 15 2
20 15 16 1
21 17 18 1
22 18 19 2
23 18 20 2
24 21 22 1
25 22 23 1
26 23 24 1
27 23 28 1
28 24 25 1
29 25 26 1
30 26 27 1
31 27 28 1
@<TRIPOS>SUBSTRUCTURE
1	UNK0	1	GROUP	1 ****	UNK
