# created with PyMOL 2.5.0
@<TRIPOS>MOLECULE
cocrystal/docking_cocrystal/2iw8_4SP_LIG.pdb
28 31 1                 
SMALL
USER_CHARGES
@<TRIPOS>ATOM
1	  C1	-14.072	205.198	111.468	C.2	1	UNK0	0.000	
2	  C2	-18.641	205.469	112.581	C.3	1	UNK0	0.000	
3	  N1	-13.967	204.493	112.668	N.2	1	UNK0	0.000	
4	  C3	-15.043	204.427	113.512	C.2	1	UNK0	0.000	
5	  C4	-16.408	204.709	112.969	C.2	1	UNK0	0.000	
6	  N2	-17.695	204.688	113.603	N.2	1	UNK0	0.000	
7	  N3	-17.697	205.942	111.388	N.2	1	UNK0	0.000	
8	  C5	-16.408	205.435	111.665	C.2	1	UNK0	0.000	
9	  N4	-15.249	205.692	110.965	N.2	1	UNK0	0.000	
10	  N5	-12.994	205.422	110.700	N.pl3	1	UNK0	0.000	
11	  C6	-10.280	206.765	112.932	C.2	1	UNK0	0.000	
12	  C7	-9.292	207.030	111.980	C.2	1	UNK0	0.000	
13	  C8	-9.540	206.789	110.619	C.2	1	UNK0	0.000	
14	  C9	-10.784	206.281	110.230	C.2	1	UNK0	0.000	
15	 C10	-11.793	206.015	111.164	C.2	1	UNK0	0.000	
16	 C11	-11.495	206.249	112.522	C.2	1	UNK0	0.000	
17	  N6	-6.816	207.957	111.271	N.3	1	UNK0	0.000	
18	  S1	-7.695	207.653	112.608	S.o2	1	UNK0	0.000	
19	  O1	-7.053	206.592	113.331	O.2	1	UNK0	0.000	
20	  O2	-7.943	208.957	113.179	O.2	1	UNK0	0.000	
21	  O3	-15.060	203.482	114.498	O.3	1	UNK0	0.000	
22	 C12	-14.735	204.022	115.797	C.3	1	UNK0	0.000	
23	 C13	-13.569	205.012	115.807	C.3	1	UNK0	0.000	
24	 C14	-14.097	206.432	115.793	C.3	1	UNK0	0.000	
25	 C15	-12.970	207.437	115.855	C.3	1	UNK0	0.000	
26	 C16	-12.064	207.179	117.029	C.3	1	UNK0	0.000	
27	 C17	-11.557	205.759	116.993	C.3	1	UNK0	0.000	
28	 C18	-12.724	204.807	117.036	C.3	1	UNK0	0.000	
@<TRIPOS>BOND
1 1 3 1
2 1 9 2
3 1 10 1
4 2 6 1
5 2 7 1
6 3 4 2
7 4 5 1
8 4 21 1
9 5 6 2
10 5 8 1
11 7 8 2
12 8 9 1
13 10 15 1
14 11 12 1
15 11 16 2
16 12 13 2
17 12 18 1
18 13 14 1
19 14 15 2
20 15 16 1
21 17 18 1
22 18 19 2
23 18 20 2
24 21 22 1
25 22 23 1
26 23 24 1
27 23 28 1
28 24 25 1
29 25 26 1
30 26 27 1
31 27 28 1
@<TRIPOS>SUBSTRUCTURE
1	UNK0	1	GROUP	1 ****	UNK
