# created with PyMOL 2.5.0
@<TRIPOS>MOLECULE
cocrystal/docking_cocrystal/2iw8_4SP_LIG.pdb
28 31 1                 
SMALL
USER_CHARGES
@<TRIPOS>ATOM
1	  C1	-14.060	205.750	112.502	C.2	1	UNK0	0.000	
2	  C2	-18.189	203.731	112.176	C.3	1	UNK0	0.000	
3	  N1	-13.666	204.648	113.245	N.2	1	UNK0	0.000	
4	  C3	-14.635	203.790	113.751	C.2	1	UNK0	0.000	
5	  C4	-16.067	203.900	113.290	C.2	1	UNK0	0.000	
6	  N2	-17.089	202.906	113.021	N.2	1	UNK0	0.000	
7	  N3	-17.672	205.246	112.122	N.2	1	UNK0	0.000	
8	  C5	-16.375	205.253	112.675	C.2	1	UNK0	0.000	
9	  N4	-15.361	206.044	112.163	N.2	1	UNK0	0.000	
10	  N5	-13.194	206.594	111.910	N.pl3	1	UNK0	0.000	
11	  C6	-9.819	206.826	113.581	C.2	1	UNK0	0.000	
12	  C7	-9.308	207.940	112.907	C.2	1	UNK0	0.000	
13	  C8	-10.049	208.559	111.887	C.2	1	UNK0	0.000	
14	  C9	-11.320	208.051	111.570	C.2	1	UNK0	0.000	
15	 C10	-11.884	206.992	112.279	C.2	1	UNK0	0.000	
16	 C11	-11.093	206.359	113.257	C.2	1	UNK0	0.000	
17	  N6	-6.830	208.562	112.071	N.3	1	UNK0	0.000	
18	  S1	-7.725	208.663	113.399	S.o2	1	UNK0	0.000	
19	  O1	-7.029	207.775	114.309	O.2	1	UNK0	0.000	
20	  O2	-7.869	210.075	113.671	O.2	1	UNK0	0.000	
21	  O3	-14.283	202.567	114.231	O.3	1	UNK0	0.000	
22	 C12	-14.065	202.594	115.645	C.3	1	UNK0	0.000	
23	 C13	-12.962	203.545	116.099	C.3	1	UNK0	0.000	
24	 C14	-13.544	204.877	116.547	C.3	1	UNK0	0.000	
25	 C15	-12.440	205.808	117.000	C.3	1	UNK0	0.000	
26	 C16	-11.693	205.183	118.161	C.3	1	UNK0	0.000	
27	 C17	-11.129	203.848	117.744	C.3	1	UNK0	0.000	
28	 C18	-12.235	202.928	117.271	C.3	1	UNK0	0.000	
@<TRIPOS>BOND
1 1 3 1
2 1 9 2
3 1 10 1
4 2 6 1
5 2 7 1
6 3 4 2
7 4 5 1
8 4 21 1
9 5 6 2
10 5 8 1
11 7 8 2
12 8 9 1
13 10 15 1
14 11 12 1
15 11 16 2
16 12 13 2
17 12 18 1
18 13 14 1
19 14 15 2
20 15 16 1
21 17 18 1
22 18 19 2
23 18 20 2
24 21 22 1
25 22 23 1
26 23 24 1
27 23 28 1
28 24 25 1
29 25 26 1
30 26 27 1
31 27 28 1
@<TRIPOS>SUBSTRUCTURE
1	UNK0	1	GROUP	1 ****	UNK
