# created with PyMOL 2.5.0
@<TRIPOS>MOLECULE
cocrystal/docking_cocrystal/2iw8_4SP_LIG.pdb
50 53 1                 
SMALL
USER_CHARGES
@<TRIPOS>ATOM
1	 H21	-11.750	204.230	115.140	 H	1	UNK0	0.000	
2	 H22	-12.160	203.560	116.720	 H	1	UNK0	0.000	
3	 H19	-10.080	204.860	116.800	 H	1	UNK0	0.000	
4	 H08	-4.340	206.970	113.400	 H	1	UNK0	0.000	
5	 H20	-10.910	206.280	116.190	 H	1	UNK0	0.000	
6	 H01	-17.550	207.260	112.540	 H	1	UNK0	0.000	
7	 H05	-6.900	206.930	111.080	 H	1	UNK0	0.000	
8	 H04	-8.860	206.680	114.930	 H	1	UNK0	0.000	
9	 H11	-15.450	204.850	115.490	 H	1	UNK0	0.000	
10	 H03	-11.430	206.350	110.180	 H	1	UNK0	0.000	
11	 H09	-4.850	208.450	112.770	 H	1	UNK0	0.000	
12	 H02	-18.080	205.940	111.510	 H	1	UNK0	0.000	
13	 H10	-14.670	203.430	116.180	 H	1	UNK0	0.000	
14	 H07	-10.940	206.110	113.820	 H	1	UNK0	0.000	
15	 H14	-14.780	206.160	117.470	 H	1	UNK0	0.000	
16	 H13	-14.010	204.720	118.120	 H	1	UNK0	0.000	
17	 H12	-13.300	206.100	115.520	 H	1	UNK0	0.000	
18	 H15	-13.080	206.730	119.170	 H	1	UNK0	0.000	
19	 H18	-10.690	206.400	118.630	 H	1	UNK0	0.000	
20	 H17	-11.520	204.850	118.800	 H	1	UNK0	0.000	
21	 H16	-12.680	207.380	117.580	 H	1	UNK0	0.000	
22	 H06	-9.030	206.310	109.980	 H	1	UNK0	0.000	
23	  C1	-12.580	205.710	111.600	C.2	1	UNK0	0.000	
24	  C2	-17.210	206.370	112.010	C.3	1	UNK0	0.000	
25	  N1	-12.740	204.910	112.730	N.2	1	UNK0	0.000	
26	  C3	-13.970	204.820	113.330	C.2	1	UNK0	0.000	
27	  C4	-15.210	205.160	112.560	C.2	1	UNK0	0.000	
28	  N2	-16.560	205.330	113.050	N.2	1	UNK0	0.000	
29	  N3	-16.060	206.770	110.970	N.2	1	UNK0	0.000	
30	  C5	-14.910	206.050	111.360	C.2	1	UNK0	0.000	
31	  N4	-13.630	206.310	110.930	N.2	1	UNK0	0.000	
32	  N5	-11.360	205.890	111.090	N.pl3	1	UNK0	0.000	
33	  C6	-8.870	206.590	113.840	C.2	1	UNK0	0.000	
34	  C7	-7.730	206.860	113.080	C.2	1	UNK0	0.000	
35	  C8	-7.780	206.740	111.680	C.2	1	UNK0	0.000	
36	  C9	-9.000	206.400	111.060	C.2	1	UNK0	0.000	
37	 C10	-10.170	206.220	111.790	C.2	1	UNK0	0.000	
38	 C11	-10.070	206.270	113.200	C.2	1	UNK0	0.000	
39	  N6	-5.050	207.430	112.850	N.3	1	UNK0	0.000	
40	  S1	-6.230	207.460	113.940	S.o2	1	UNK0	0.000	
41	  O1	-5.800	206.440	114.870	O.2	1	UNK0	0.000	
42	  O2	-6.370	208.840	114.300	O.2	1	UNK0	0.000	
43	  O3	-14.220	203.810	114.220	O.3	1	UNK0	0.000	
44	 C12	-14.520	204.300	115.530	C.3	1	UNK0	0.000	
45	 C13	-13.420	205.200	116.120	C.3	1	UNK0	0.000	
46	 C14	-13.840	205.610	117.510	C.3	1	UNK0	0.000	
47	 C15	-12.780	206.460	118.160	C.3	1	UNK0	0.000	
48	 C16	-11.450	205.750	118.180	C.3	1	UNK0	0.000	
49	 C17	-11.030	205.370	116.780	C.3	1	UNK0	0.000	
50	 C18	-12.080	204.490	116.150	C.3	1	UNK0	0.000	
@<TRIPOS>BOND
1 23 25 1
2 23 31 2
3 23 32 1
4 6 24 1
5 12 24 1
6 24 28 1
7 24 29 1
8 25 26 2
9 26 27 1
10 26 43 1
11 27 28 2
12 27 30 1
13 29 30 2
14 30 31 1
15 10 32 1
16 32 37 1
17 8 33 1
18 33 34 1
19 33 38 2
20 34 35 2
21 34 40 1
22 7 35 1
23 35 36 1
24 22 36 1
25 36 37 2
26 37 38 1
27 14 38 1
28 4 39 1
29 11 39 1
30 39 40 1
31 40 41 2
32 40 42 2
33 43 44 1
34 9 44 1
35 13 44 1
36 44 45 1
37 17 45 1
38 45 46 1
39 45 50 1
40 15 46 1
41 16 46 1
42 46 47 1
43 18 47 1
44 21 47 1
45 47 48 1
46 19 48 1
47 20 48 1
48 48 49 1
49 3 49 1
50 5 49 1
51 49 50 1
52 1 50 1
53 2 50 1
@<TRIPOS>SUBSTRUCTURE
1	UNK0	1	GROUP	1 ****	UNK
