# created with PyMOL 2.5.0
@<TRIPOS>MOLECULE
cocrystal/docking_cocrystal/2iw8_4SP_LIG.pdb
50 53 1                 
SMALL
USER_CHARGES
@<TRIPOS>ATOM
1	 H21	-12.700	203.680	118.610	 H	1	UNK0	0.000	
2	 H22	-12.240	205.230	117.890	 H	1	UNK0	0.000	
3	 H19	-10.580	204.510	119.570	 H	1	UNK0	0.000	
4	 H08	-6.350	207.640	113.310	 H	1	UNK0	0.000	
5	 H20	-10.320	203.000	118.690	 H	1	UNK0	0.000	
6	 H01	-17.890	204.720	115.370	 H	1	UNK0	0.000	
7	 H05	-8.470	204.600	111.350	 H	1	UNK0	0.000	
8	 H04	-8.410	207.310	114.740	 H	1	UNK0	0.000	
9	 H11	-13.550	204.810	115.810	 H	1	UNK0	0.000	
10	 H03	-12.670	207.670	112.750	 H	1	UNK0	0.000	
11	 H09	-5.330	206.820	114.310	 H	1	UNK0	0.000	
12	 H02	-18.410	204.250	113.730	 H	1	UNK0	0.000	
13	 H10	-14.120	203.410	116.720	 H	1	UNK0	0.000	
14	 H07	-10.770	207.860	114.310	 H	1	UNK0	0.000	
15	 H14	-10.930	203.720	114.720	 H	1	UNK0	0.000	
16	 H13	-11.210	205.260	115.550	 H	1	UNK0	0.000	
17	 H12	-11.750	202.480	116.660	 H	1	UNK0	0.000	
18	 H15	-8.840	204.600	115.680	 H	1	UNK0	0.000	
19	 H18	-8.580	204.650	118.140	 H	1	UNK0	0.000	
20	 H17	-9.810	205.800	117.610	 H	1	UNK0	0.000	
21	 H16	-9.300	203.050	116.410	 H	1	UNK0	0.000	
22	 H06	-10.860	205.130	111.010	 H	1	UNK0	0.000	
23	  C1	-13.270	205.820	112.880	C.2	1	UNK0	0.000	
24	  C2	-17.550	204.540	114.350	C.3	1	UNK0	0.000	
25	  N1	-12.910	204.510	113.180	N.2	1	UNK0	0.000	
26	  C3	-13.850	203.630	113.700	C.2	1	UNK0	0.000	
27	  C4	-15.310	204.010	113.680	C.2	1	UNK0	0.000	
28	  N2	-16.430	203.380	114.350	N.2	1	UNK0	0.000	
29	  N3	-16.870	205.860	113.730	N.2	1	UNK0	0.000	
30	  C5	-15.560	205.460	113.320	C.2	1	UNK0	0.000	
31	  N4	-14.540	206.330	113.040	N.2	1	UNK0	0.000	
32	  N5	-12.350	206.740	112.500	N.pl3	1	UNK0	0.000	
33	  C6	-8.920	206.860	113.890	C.2	1	UNK0	0.000	
34	  C7	-8.260	205.950	113.050	C.2	1	UNK0	0.000	
35	  C8	-8.950	205.330	111.990	C.2	1	UNK0	0.000	
36	  C9	-10.300	205.630	111.800	C.2	1	UNK0	0.000	
37	 C10	-10.960	206.560	112.610	C.2	1	UNK0	0.000	
38	 C11	-10.260	207.170	113.650	C.2	1	UNK0	0.000	
39	  N6	-5.710	206.830	113.370	N.3	1	UNK0	0.000	
40	  S1	-6.550	205.450	113.380	S.o2	1	UNK0	0.000	
41	  O1	-6.070	204.670	112.260	O.2	1	UNK0	0.000	
42	  O2	-6.440	204.990	114.740	O.2	1	UNK0	0.000	
43	  O3	-13.550	202.930	114.820	O.3	1	UNK0	0.000	
44	 C12	-13.370	203.740	116.000	C.3	1	UNK0	0.000	
45	 C13	-11.990	203.550	116.580	C.3	1	UNK0	0.000	
46	 C14	-10.940	204.200	115.700	C.3	1	UNK0	0.000	
47	 C15	-9.580	204.110	116.320	C.3	1	UNK0	0.000	
48	 C16	-9.560	204.730	117.700	C.3	1	UNK0	0.000	
49	 C17	-10.590	204.060	118.570	C.3	1	UNK0	0.000	
50	 C18	-11.960	204.170	117.960	C.3	1	UNK0	0.000	
@<TRIPOS>BOND
1 23 25 1
2 23 31 2
3 23 32 1
4 6 24 1
5 12 24 1
6 24 28 1
7 24 29 1
8 25 26 2
9 26 27 1
10 26 43 1
11 27 28 2
12 27 30 1
13 29 30 2
14 30 31 1
15 10 32 1
16 32 37 1
17 8 33 1
18 33 34 1
19 33 38 2
20 34 35 2
21 34 40 1
22 7 35 1
23 35 36 1
24 22 36 1
25 36 37 2
26 37 38 1
27 14 38 1
28 4 39 1
29 11 39 1
30 39 40 1
31 40 41 2
32 40 42 2
33 43 44 1
34 9 44 1
35 13 44 1
36 44 45 1
37 17 45 1
38 45 46 1
39 45 50 1
40 15 46 1
41 16 46 1
42 46 47 1
43 18 47 1
44 21 47 1
45 47 48 1
46 19 48 1
47 20 48 1
48 48 49 1
49 3 49 1
50 5 49 1
51 49 50 1
52 1 50 1
53 2 50 1
@<TRIPOS>SUBSTRUCTURE
1	UNK0	1	GROUP	1 ****	UNK
