# created with PyMOL 2.5.0
@<TRIPOS>MOLECULE
cocrystal/docking_cocrystal/2iw8_4SP_LIG.pdb
28 31 1                 
SMALL
USER_CHARGES
@<TRIPOS>ATOM
1	  C1	-14.477	205.416	112.551	C.2	1	UNK0	0.000	
2	  C2	-18.453	203.799	114.144	C.3	1	UNK0	0.000	
3	  N1	-13.856	204.715	113.573	N.2	1	UNK0	0.000	
4	  C3	-14.649	204.120	114.549	C.2	1	UNK0	0.000	
5	  C4	-16.135	204.270	114.530	C.2	1	UNK0	0.000	
6	  N2	-17.135	203.257	114.874	N.2	1	UNK0	0.000	
7	  N3	-18.039	205.105	113.307	N.2	1	UNK0	0.000	
8	  C5	-16.634	205.260	113.507	C.2	1	UNK0	0.000	
9	  N4	-15.831	205.621	112.438	N.2	1	UNK0	0.000	
10	  N5	-13.822	205.870	111.445	N.pl3	1	UNK0	0.000	
11	  C6	-10.101	206.273	111.898	C.2	1	UNK0	0.000	
12	  C7	-9.746	206.520	110.567	C.2	1	UNK0	0.000	
13	  C8	-10.715	206.557	109.561	C.2	1	UNK0	0.000	
14	  C9	-12.060	206.366	109.897	C.2	1	UNK0	0.000	
15	 C10	-12.456	206.127	111.221	C.2	1	UNK0	0.000	
16	 C11	-11.456	206.062	112.214	C.2	1	UNK0	0.000	
17	  N6	-7.902	208.197	109.529	N.3	1	UNK0	0.000	
18	  S1	-7.994	206.692	110.137	S.o2	1	UNK0	0.000	
19	  O1	-7.678	205.841	109.011	O.2	1	UNK0	0.000	
20	  O2	-7.191	206.735	111.327	O.2	1	UNK0	0.000	
21	  O3	-14.206	203.886	115.805	O.3	1	UNK0	0.000	
22	 C12	-13.543	205.006	116.419	C.3	1	UNK0	0.000	
23	 C13	-12.107	204.643	116.760	C.3	1	UNK0	0.000	
24	 C14	-11.449	205.853	117.388	C.3	1	UNK0	0.000	
25	 C15	-10.033	205.545	117.804	C.3	1	UNK0	0.000	
26	 C16	-10.006	204.369	118.763	C.3	1	UNK0	0.000	
27	 C17	-10.674	203.159	118.136	C.3	1	UNK0	0.000	
28	 C18	-12.091	203.485	117.741	C.3	1	UNK0	0.000	
@<TRIPOS>BOND
1 1 3 1
2 1 9 2
3 1 10 1
4 2 6 1
5 2 7 1
6 3 4 2
7 4 5 1
8 4 21 1
9 5 6 2
10 5 8 1
11 7 8 2
12 8 9 1
13 10 15 1
14 11 12 1
15 11 16 2
16 12 13 2
17 12 18 1
18 13 14 1
19 14 15 2
20 15 16 1
21 17 18 1
22 18 19 2
23 18 20 2
24 21 22 1
25 22 23 1
26 23 24 1
27 23 28 1
28 24 25 1
29 25 26 1
30 26 27 1
31 27 28 1
@<TRIPOS>SUBSTRUCTURE
1	UNK0	1	GROUP	1 ****	UNK
