# created with PyMOL 2.5.0
@<TRIPOS>MOLECULE
cocrystal/docking_cocrystal/2iw8_4SP_LIG.pdb
50 53 1                 
SMALL
USER_CHARGES
@<TRIPOS>ATOM
1	 H21	-10.950	204.890	116.250	 H	1	UNK0	0.000	
2	 H22	-11.200	204.350	117.900	 H	1	UNK0	0.000	
3	 H19	-9.100	205.640	117.690	 H	1	UNK0	0.000	
4	 H08	-5.230	209.510	112.820	 H	1	UNK0	0.000	
5	 H20	-10.030	207.040	117.130	 H	1	UNK0	0.000	
6	 H01	-18.250	205.910	112.400	 H	1	UNK0	0.000	
7	 H05	-7.760	208.850	111.710	 H	1	UNK0	0.000	
8	 H04	-8.530	207.300	115.690	 H	1	UNK0	0.000	
9	 H11	-14.140	204.630	117.780	 H	1	UNK0	0.000	
10	 H03	-11.820	206.840	111.380	 H	1	UNK0	0.000	
11	 H09	-4.620	208.170	113.690	 H	1	UNK0	0.000	
12	 H02	-17.480	204.340	112.040	 H	1	UNK0	0.000	
13	 H10	-13.230	204.100	116.370	 H	1	UNK0	0.000	
14	 H07	-10.660	206.380	114.900	 H	1	UNK0	0.000	
15	 H14	-13.720	206.920	118.790	 H	1	UNK0	0.000	
16	 H13	-12.840	205.510	119.390	 H	1	UNK0	0.000	
17	 H12	-12.460	206.830	116.680	 H	1	UNK0	0.000	
18	 H15	-11.860	207.570	120.290	 H	1	UNK0	0.000	
19	 H18	-9.530	207.230	119.530	 H	1	UNK0	0.000	
20	 H17	-10.340	205.690	119.830	 H	1	UNK0	0.000	
21	 H16	-11.620	208.190	118.650	 H	1	UNK0	0.000	
22	 H06	-9.870	207.870	110.940	 H	1	UNK0	0.000	
23	  C1	-12.810	206.300	112.940	C.2	1	UNK0	0.000	
24	  C2	-17.320	205.350	112.430	C.3	1	UNK0	0.000	
25	  N1	-12.980	205.950	114.270	N.2	1	UNK0	0.000	
26	  C3	-14.270	205.710	114.740	C.2	1	UNK0	0.000	
27	  C4	-15.480	205.950	113.870	C.2	1	UNK0	0.000	
28	  N2	-16.770	205.270	113.940	N.2	1	UNK0	0.000	
29	  N3	-16.190	206.100	111.570	N.2	1	UNK0	0.000	
30	  C5	-15.120	206.360	112.460	C.2	1	UNK0	0.000	
31	  N4	-13.820	206.430	112.020	N.2	1	UNK0	0.000	
32	  N5	-11.620	206.520	112.320	N.pl3	1	UNK0	0.000	
33	  C6	-8.830	207.450	114.650	C.2	1	UNK0	0.000	
34	  C7	-8.010	208.150	113.760	C.2	1	UNK0	0.000	
35	  C8	-8.390	208.310	112.420	C.2	1	UNK0	0.000	
36	  C9	-9.590	207.750	111.980	C.2	1	UNK0	0.000	
37	 C10	-10.450	207.080	112.870	C.2	1	UNK0	0.000	
38	 C11	-10.040	206.930	114.200	C.2	1	UNK0	0.000	
39	  N6	-5.410	208.550	113.160	N.3	1	UNK0	0.000	
40	  S1	-6.450	208.820	114.380	S.o2	1	UNK0	0.000	
41	  O1	-5.930	207.970	115.420	O.2	1	UNK0	0.000	
42	  O2	-6.540	210.250	114.500	O.2	1	UNK0	0.000	
43	  O3	-14.590	205.630	116.060	O.3	1	UNK0	0.000	
44	 C12	-13.610	204.990	116.890	C.3	1	UNK0	0.000	
45	 C13	-12.500	205.940	117.320	C.3	1	UNK0	0.000	
46	 C14	-12.770	206.390	118.740	C.3	1	UNK0	0.000	
47	 C15	-11.660	207.280	119.260	C.3	1	UNK0	0.000	
48	 C16	-10.330	206.570	119.180	C.3	1	UNK0	0.000	
49	 C17	-10.060	206.150	117.760	C.3	1	UNK0	0.000	
50	 C18	-11.170	205.230	117.270	C.3	1	UNK0	0.000	
@<TRIPOS>BOND
1 23 25 1
2 23 31 2
3 23 32 1
4 6 24 1
5 12 24 1
6 24 28 1
7 24 29 1
8 25 26 2
9 26 27 1
10 26 43 1
11 27 28 2
12 27 30 1
13 29 30 2
14 30 31 1
15 10 32 1
16 32 37 1
17 8 33 1
18 33 34 1
19 33 38 2
20 34 35 2
21 34 40 1
22 7 35 1
23 35 36 1
24 22 36 1
25 36 37 2
26 37 38 1
27 14 38 1
28 4 39 1
29 11 39 1
30 39 40 1
31 40 41 2
32 40 42 2
33 43 44 1
34 9 44 1
35 13 44 1
36 44 45 1
37 17 45 1
38 45 46 1
39 45 50 1
40 15 46 1
41 16 46 1
42 46 47 1
43 18 47 1
44 21 47 1
45 47 48 1
46 19 48 1
47 20 48 1
48 48 49 1
49 3 49 1
50 5 49 1
51 49 50 1
52 1 50 1
53 2 50 1
@<TRIPOS>SUBSTRUCTURE
1	UNK0	1	GROUP	1 ****	UNK
