# created with PyMOL 2.5.0
@<TRIPOS>MOLECULE
cocrystal/docking_cocrystal/2iw8_4SP_LIG.pdb
28 31 1                 
SMALL
USER_CHARGES
@<TRIPOS>ATOM
1	  C1	-12.911	205.407	111.023	C.2	1	UNK0	0.000	
2	  C2	-17.564	205.695	111.584	C.3	1	UNK0	0.000	
3	  N1	-12.973	204.576	112.140	N.2	1	UNK0	0.000	
4	  C3	-14.173	204.379	112.774	C.2	1	UNK0	0.000	
5	  C4	-15.459	204.635	112.049	C.2	1	UNK0	0.000	
6	  N2	-16.803	204.690	112.582	N.2	1	UNK0	0.000	
7	  N3	-16.481	206.203	110.519	N.2	1	UNK0	0.000	
8	  C5	-15.267	205.568	110.859	C.2	1	UNK0	0.000	
9	  N4	-14.025	205.936	110.397	N.2	1	UNK0	0.000	
10	  N5	-11.726	205.692	110.481	N.pl3	1	UNK0	0.000	
11	  C6	-9.213	206.533	113.170	C.2	1	UNK0	0.000	
12	  C7	-8.122	206.906	112.382	C.2	1	UNK0	0.000	
13	  C8	-8.206	206.808	110.982	C.2	1	UNK0	0.000	
14	  C9	-9.414	206.385	110.392	C.2	1	UNK0	0.000	
15	 C10	-10.544	206.101	111.152	C.2	1	UNK0	0.000	
16	 C11	-10.404	206.132	112.559	C.2	1	UNK0	0.000	
17	  N6	-5.502	207.688	112.085	N.3	1	UNK0	0.000	
18	  S1	-6.647	207.605	113.210	S.o2	1	UNK0	0.000	
19	  O1	-6.110	206.605	114.105	O.2	1	UNK0	0.000	
20	  O2	-6.882	208.963	113.603	O.2	1	UNK0	0.000	
21	  O3	-14.316	203.336	113.650	O.3	1	UNK0	0.000	
22	 C12	-14.612	203.777	114.978	C.3	1	UNK0	0.000	
23	 C13	-13.568	204.749	115.554	C.3	1	UNK0	0.000	
24	 C14	-13.975	205.099	116.964	C.3	1	UNK0	0.000	
25	 C15	-12.964	206.017	117.600	C.3	1	UNK0	0.000	
26	 C16	-11.583	205.413	117.566	C.3	1	UNK0	0.000	
27	 C17	-11.179	205.093	116.146	C.3	1	UNK0	0.000	
28	 C18	-12.176	204.146	115.529	C.3	1	UNK0	0.000	
@<TRIPOS>BOND
1 1 3 1
2 1 9 2
3 1 10 1
4 2 6 1
5 2 7 1
6 3 4 2
7 4 5 1
8 4 21 1
9 5 6 2
10 5 8 1
11 7 8 2
12 8 9 1
13 10 15 1
14 11 12 1
15 11 16 2
16 12 13 2
17 12 18 1
18 13 14 1
19 14 15 2
20 15 16 1
21 17 18 1
22 18 19 2
23 18 20 2
24 21 22 1
25 22 23 1
26 23 24 1
27 23 28 1
28 24 25 1
29 25 26 1
30 26 27 1
31 27 28 1
@<TRIPOS>SUBSTRUCTURE
1	UNK0	1	GROUP	1 ****	UNK
