# created with PyMOL 2.5.0
@<TRIPOS>MOLECULE
cocrystal/docking_cocrystal/2iw8_4SP_LIG.pdb
28 31 1                 
SMALL
USER_CHARGES
@<TRIPOS>ATOM
1	  C1	-15.091	203.219	112.876	C.2	1	UNK0	0.000	
2	  C2	-18.455	206.056	112.407	C.3	1	UNK0	0.000	
3	  N1	-15.081	203.392	114.258	N.2	1	UNK0	0.000	
4	  C3	-16.050	204.236	114.789	C.2	1	UNK0	0.000	
5	  C4	-16.762	205.210	113.875	C.2	1	UNK0	0.000	
6	  N2	-18.136	205.641	113.927	N.2	1	UNK0	0.000	
7	  N3	-17.189	205.656	111.519	N.2	1	UNK0	0.000	
8	  C5	-16.277	205.097	112.429	C.2	1	UNK0	0.000	
9	  N4	-15.947	203.868	112.039	N.2	1	UNK0	0.000	
10	  N5	-14.084	202.636	112.228	N.pl3	1	UNK0	0.000	
11	  C6	-11.089	204.750	112.940	C.2	1	UNK0	0.000	
12	  C7	-10.879	205.328	111.691	C.2	1	UNK0	0.000	
13	  C8	-11.701	204.990	110.589	C.2	1	UNK0	0.000	
14	  C9	-12.729	204.051	110.794	C.2	1	UNK0	0.000	
15	 C10	-12.958	203.461	112.033	C.2	1	UNK0	0.000	
16	 C11	-12.118	203.812	113.105	C.2	1	UNK0	0.000	
17	  N6	-8.327	206.005	111.158	N.3	1	UNK0	0.000	
18	  S1	-9.703	206.709	111.505	S.o2	1	UNK0	0.000	
19	  O1	-9.956	207.462	110.312	O.2	1	UNK0	0.000	
20	  O2	-9.406	207.300	112.780	O.2	1	UNK0	0.000	
21	  O3	-15.856	204.833	115.997	O.3	1	UNK0	0.000	
22	 C12	-15.098	204.071	116.941	C.3	1	UNK0	0.000	
23	 C13	-13.635	204.481	116.892	C.3	1	UNK0	0.000	
24	 C14	-13.481	205.947	117.258	C.3	1	UNK0	0.000	
25	 C15	-12.016	206.336	117.227	C.3	1	UNK0	0.000	
26	 C16	-11.221	205.475	118.175	C.3	1	UNK0	0.000	
27	 C17	-11.385	204.018	117.820	C.3	1	UNK0	0.000	
28	 C18	-12.840	203.629	117.860	C.3	1	UNK0	0.000	
@<TRIPOS>BOND
1 1 3 1
2 1 9 2
3 1 10 1
4 2 6 1
5 2 7 1
6 3 4 2
7 4 5 1
8 4 21 1
9 5 6 2
10 5 8 1
11 7 8 2
12 8 9 1
13 10 15 1
14 11 12 1
15 11 16 2
16 12 13 2
17 12 18 1
18 13 14 1
19 14 15 2
20 15 16 1
21 17 18 1
22 18 19 2
23 18 20 2
24 21 22 1
25 22 23 1
26 23 24 1
27 23 28 1
28 24 25 1
29 25 26 1
30 26 27 1
31 27 28 1
@<TRIPOS>SUBSTRUCTURE
1	UNK0	1	GROUP	1 ****	UNK
