# created with PyMOL 2.5.0
@<TRIPOS>MOLECULE
cocrystal/docking_cocrystal/2iw8_4SP_LIG.pdb
50 53 1                 
SMALL
USER_CHARGES
@<TRIPOS>ATOM
1	 H21	-12.250	202.560	117.880	 H	1	UNK0	0.000	
2	 H22	-13.360	203.480	118.890	 H	1	UNK0	0.000	
3	 H19	-11.000	203.970	119.460	 H	1	UNK0	0.000	
4	 H08	-6.330	209.480	112.590	 H	1	UNK0	0.000	
5	 H20	-10.710	204.490	117.790	 H	1	UNK0	0.000	
6	 H01	-19.260	204.570	113.150	 H	1	UNK0	0.000	
7	 H05	-9.320	209.560	112.030	 H	1	UNK0	0.000	
8	 H04	-9.270	206.600	115.190	 H	1	UNK0	0.000	
9	 H11	-15.340	203.580	116.880	 H	1	UNK0	0.000	
10	 H03	-13.510	207.730	111.970	 H	1	UNK0	0.000	
11	 H09	-5.800	208.040	113.320	 H	1	UNK0	0.000	
12	 H02	-18.340	204.090	111.730	 H	1	UNK0	0.000	
13	 H10	-14.200	202.260	116.750	 H	1	UNK0	0.000	
14	 H07	-11.520	205.900	114.560	 H	1	UNK0	0.000	
15	 H14	-14.230	206.050	116.380	 H	1	UNK0	0.000	
16	 H13	-14.480	205.490	118.030	 H	1	UNK0	0.000	
17	 H12	-12.470	204.250	116.090	 H	1	UNK0	0.000	
18	 H15	-12.960	207.430	117.930	 H	1	UNK0	0.000	
19	 H18	-11.100	206.430	119.240	 H	1	UNK0	0.000	
20	 H17	-12.670	205.770	119.730	 H	1	UNK0	0.000	
21	 H16	-11.860	206.520	116.890	 H	1	UNK0	0.000	
22	 H06	-11.580	208.820	111.400	 H	1	UNK0	0.000	
23	  C1	-14.020	206.270	113.130	C.2	1	UNK0	0.000	
24	  C2	-18.270	204.540	112.710	C.3	1	UNK0	0.000	
25	  N1	-13.740	205.180	113.940	N.2	1	UNK0	0.000	
26	  C3	-14.790	204.420	114.440	C.2	1	UNK0	0.000	
27	  C4	-16.190	204.610	113.910	C.2	1	UNK0	0.000	
28	  N2	-17.270	203.680	113.640	N.2	1	UNK0	0.000	
29	  N3	-17.640	206.010	112.610	N.2	1	UNK0	0.000	
30	  C5	-16.370	205.950	113.220	C.2	1	UNK0	0.000	
31	  N4	-15.280	206.640	112.720	N.2	1	UNK0	0.000	
32	  N5	-13.070	207.020	112.540	N.pl3	1	UNK0	0.000	
33	  C6	-9.760	207.090	114.350	C.2	1	UNK0	0.000	
34	  C7	-9.140	208.130	113.650	C.2	1	UNK0	0.000	
35	  C8	-9.790	208.750	112.570	C.2	1	UNK0	0.000	
36	  C9	-11.080	208.320	112.220	C.2	1	UNK0	0.000	
37	 C10	-11.750	207.340	112.950	C.2	1	UNK0	0.000	
38	 C11	-11.050	206.700	113.990	C.2	1	UNK0	0.000	
39	  N6	-6.590	208.530	112.900	N.3	1	UNK0	0.000	
40	  S1	-7.530	208.760	114.180	S.o2	1	UNK0	0.000	
41	  O1	-6.940	207.870	115.160	O.2	1	UNK0	0.000	
42	  O2	-7.580	210.190	114.380	O.2	1	UNK0	0.000	
43	  O3	-14.550	203.200	114.990	O.3	1	UNK0	0.000	
44	 C12	-14.390	203.280	116.410	C.3	1	UNK0	0.000	
45	 C13	-13.240	204.170	116.870	C.3	1	UNK0	0.000	
46	 C14	-13.740	205.560	117.230	C.3	1	UNK0	0.000	
47	 C15	-12.590	206.430	117.690	C.3	1	UNK0	0.000	
48	 C16	-11.940	205.810	118.910	C.3	1	UNK0	0.000	
49	 C17	-11.460	204.420	118.580	C.3	1	UNK0	0.000	
50	 C18	-12.610	203.560	118.100	C.3	1	UNK0	0.000	
@<TRIPOS>BOND
1 23 25 1
2 23 31 2
3 23 32 1
4 6 24 1
5 12 24 1
6 24 28 1
7 24 29 1
8 25 26 2
9 26 27 1
10 26 43 1
11 27 28 2
12 27 30 1
13 29 30 2
14 30 31 1
15 10 32 1
16 32 37 1
17 8 33 1
18 33 34 1
19 33 38 2
20 34 35 2
21 34 40 1
22 7 35 1
23 35 36 1
24 22 36 1
25 36 37 2
26 37 38 1
27 14 38 1
28 4 39 1
29 11 39 1
30 39 40 1
31 40 41 2
32 40 42 2
33 43 44 1
34 9 44 1
35 13 44 1
36 44 45 1
37 17 45 1
38 45 46 1
39 45 50 1
40 15 46 1
41 16 46 1
42 46 47 1
43 18 47 1
44 21 47 1
45 47 48 1
46 19 48 1
47 20 48 1
48 48 49 1
49 3 49 1
50 5 49 1
51 49 50 1
52 1 50 1
53 2 50 1
@<TRIPOS>SUBSTRUCTURE
1	UNK0	1	GROUP	1 ****	UNK
