# created with PyMOL 2.5.0
@<TRIPOS>MOLECULE
MOL
38 41 1                 
SMALL
USER_CHARGES
@<TRIPOS>ATOM
1	  C1	5.541	8.080	22.156	C.3	1	UNK0	0.000	
2	  F1	4.876	9.128	22.563	 F	1	UNK0	0.000	
3	  C2	5.160	7.374	20.991	C.2	1	UNK0	0.000	
4	  C3	5.938	6.249	20.603	C.2	1	UNK0	0.000	
5	  F2	5.650	5.567	19.547	 F	1	UNK0	0.000	
6	  C4	7.044	5.868	21.372	C.2	1	UNK0	0.000	
7	  N1	7.348	6.561	22.457	N.pl3	1	UNK0	0.000	
8	  C5	6.660	7.630	22.889	C.2	1	UNK0	0.000	
9	  N2	4.073	7.778	20.257	N.pl3	1	UNK0	0.000	
10	  C6	2.741	7.419	20.695	C.3	1	UNK0	0.000	
11	  C7	4.260	8.579	19.044	C.3	1	UNK0	0.000	
12	  C8	5.584	9.291	18.885	C.2	1	UNK0	0.000	
13	  O1	5.828	10.421	19.413	O.co2	1	UNK0	0.000	
14	  O2	6.585	8.705	18.159	O.co2	1	UNK0	0.000	
15	  O3	7.060	8.248	23.993	O.3	1	UNK0	0.000	
16	  O4	8.965	9.781	22.664	O.3	1	UNK0	0.000	
17	  C9	8.319	8.376	24.412	C.2	1	UNK0	0.000	
18	 C10	8.673	7.679	25.569	C.2	1	UNK0	0.000	
19	 C11	9.985	7.738	26.097	C.2	1	UNK0	0.000	
20	 C12	10.950	8.535	25.409	C.2	1	UNK0	0.000	
21	 C13	10.598	9.230	24.240	C.2	1	UNK0	0.000	
22	 C14	9.277	9.148	23.736	C.2	1	UNK0	0.000	
23	 C15	10.293	7.033	27.257	C.2	1	UNK0	0.000	
24	  N3	9.334	6.649	28.127	N.pl3	1	UNK0	0.000	
25	  N4	11.526	6.661	27.570	N.2	1	UNK0	0.000	
26	  O5	7.760	4.842	20.993	O.3	1	UNK0	0.000	
27	 C16	7.500	3.556	20.780	C.2	1	UNK0	0.000	
28	 C17	6.484	2.987	21.596	C.2	1	UNK0	0.000	
29	 C18	6.140	1.629	21.454	C.2	1	UNK0	0.000	
30	 C19	6.815	0.848	20.503	C.2	1	UNK0	0.000	
31	 C20	7.831	1.417	19.682	C.2	1	UNK0	0.000	
32	 C21	8.158	2.765	19.838	C.2	1	UNK0	0.000	
33	 C22	8.492	0.651	18.725	C.2	1	UNK0	0.000	
34	  N5	8.021	0.079	17.604	N.pl3	1	UNK0	0.000	
35	 C23	6.696	0.110	17.095	C.3	1	UNK0	0.000	
36	  N6	9.802	0.397	18.859	N.2	1	UNK0	0.000	
37	 C24	9.059	-0.610	16.921	C.2	1	UNK0	0.000	
38	 C25	10.303	-0.387	17.806	C.2	1	UNK0	0.000	
@<TRIPOS>BOND
1 1 2 1
2 1 3 1
3 1 8 1
4 3 4 2
5 3 9 1
6 4 5 1
7 4 6 1
8 6 7 2
9 6 26 1
10 7 8 2
11 8 15 1
12 9 10 1
13 9 11 1
14 11 12 1
15 12 13 2
16 12 14 1
17 15 17 1
18 16 22 1
19 17 18 1
20 17 22 2
21 18 19 2
22 19 20 1
23 19 23 1
24 20 21 2
25 21 22 1
26 23 24 1
27 23 25 2
28 26 27 1
29 27 28 1
30 27 32 2
31 28 29 2
32 29 30 1
33 30 31 2
34 31 32 1
35 31 33 1
36 33 34 1
37 33 36 2
38 34 35 1
39 34 37 1
40 36 38 1
41 37 38 2
@<TRIPOS>SUBSTRUCTURE
1	UNK0	1	GROUP	1 ****	UNK
