# created with PyMOL 2.5.0
@<TRIPOS>MOLECULE
MOL
38 43 1                 
SMALL
USER_CHARGES
@<TRIPOS>ATOM
1	  C1	3.401	3.694	22.719	C.2	1	UNK0	0.000	
2	  O1	3.180	2.633	23.299	O.2	1	UNK0	0.000	
3	  C2	3.501	5.011	23.568	C.3	1	UNK0	0.000	
4	  N1	3.757	6.283	22.839	N.3	1	UNK0	0.000	
5	  C3	3.869	5.128	20.590	C.3	1	UNK0	0.000	
6	  C4	4.542	6.164	21.593	C.3	1	UNK0	0.000	
7	  N2	3.589	3.828	21.298	N.pl3	1	UNK0	0.000	
8	  C5	4.042	2.738	20.412	C.3	1	UNK0	0.000	
9	  N3	7.075	1.154	18.782	N.pl3	1	UNK0	0.000	
10	  C6	7.130	1.737	20.218	C.3	1	UNK0	0.000	
11	  C7	5.787	1.418	17.954	C.3	1	UNK0	0.000	
12	  C8	5.186	3.407	19.580	C.3	1	UNK0	0.000	
13	  O2	4.806	4.816	19.562	O.3	1	UNK0	0.000	
14	  C9	6.624	3.211	20.239	C.3	1	UNK0	0.000	
15	 C10	5.304	2.904	18.087	C.3	1	UNK0	0.000	
16	 C11	9.166	-1.302	16.596	C.2	1	UNK0	0.000	
17	 C12	8.221	0.365	18.219	C.2	1	UNK0	0.000	
18	 C13	8.040	-0.573	17.086	C.2	1	UNK0	0.000	
19	 C14	9.594	0.478	18.768	C.2	1	UNK0	0.000	
20	  N4	10.437	-1.173	17.132	N.2	1	UNK0	0.000	
21	 C15	10.647	-0.305	18.191	C.2	1	UNK0	0.000	
22	  S1	3.921	7.813	23.526	S.o2	1	UNK0	0.000	
23	  O3	3.328	7.716	24.961	O.2	1	UNK0	0.000	
24	  O4	3.186	8.866	22.677	O.2	1	UNK0	0.000	
25	 C16	6.336	7.682	24.816	C.2	1	UNK0	0.000	
26	 C17	5.608	8.196	23.667	C.2	1	UNK0	0.000	
27	 C18	8.546	8.662	23.844	C.2	1	UNK0	0.000	
28	 C19	7.789	9.175	22.681	C.2	1	UNK0	0.000	
29	 C20	6.363	8.950	22.597	C.2	1	UNK0	0.000	
30	 C21	7.769	7.877	24.963	C.2	1	UNK0	0.000	
31	 Cl1	12.374	8.571	25.389	Cl	1	UNK0	0.000	
32	 C22	8.509	7.363	26.135	C.2	1	UNK0	0.000	
33	 C23	9.976	8.852	24.013	C.2	1	UNK0	0.000	
34	 C24	9.917	7.591	26.234	C.2	1	UNK0	0.000	
35	 C25	10.658	8.327	25.190	C.2	1	UNK0	0.000	
36	 C26	2.637	5.872	19.928	C.3	1	UNK0	0.000	
37	  O5	1.334	5.357	20.320	O.3	1	UNK0	0.000	
38	 C27	0.576	6.157	21.130	C.3	1	UNK0	0.000	
@<TRIPOS>BOND
1 1 2 2
2 1 3 1
3 1 7 1
4 3 4 1
5 4 6 1
6 4 22 1
7 5 6 1
8 5 7 1
9 5 13 1
10 5 36 1
11 7 8 1
12 8 12 1
13 9 10 1
14 9 11 1
15 9 17 1
16 10 14 1
17 11 15 1
18 12 13 1
19 12 14 1
20 12 15 1
21 16 18 2
22 16 20 1
23 17 18 1
24 17 19 2
25 19 21 1
26 20 21 2
27 22 23 2
28 22 24 2
29 22 26 1
30 25 26 2
31 25 30 1
32 26 29 1
33 27 28 1
34 27 30 1
35 27 33 2
36 28 29 2
37 30 32 2
38 31 35 1
39 32 34 1
40 33 35 1
41 34 35 2
42 36 37 1
43 37 38 1
@<TRIPOS>SUBSTRUCTURE
1	UNK0	1	GROUP	1 ****	UNK
