# created with PyMOL 2.5.0
@<TRIPOS>MOLECULE
MOL
66 70 1                 
SMALL
USER_CHARGES
@<TRIPOS>ATOM
1	 H19	4.979	0.895	18.347	 H	1	UNK0	0.000	
2	 H04	6.757	7.502	22.048	 H	1	UNK0	0.000	
3	 H18	3.720	3.911	19.711	 H	1	UNK0	0.000	
4	 H22	4.925	3.268	16.784	 H	1	UNK0	0.000	
5	 H26	7.070	-0.803	16.495	 H	1	UNK0	0.000	
6	 H23	7.196	3.942	20.768	 H	1	UNK0	0.000	
7	 H27	9.038	-2.146	15.701	 H	1	UNK0	0.000	
8	 H25	9.755	1.014	19.543	 H	1	UNK0	0.000	
9	 H05	5.458	8.657	21.392	 H	1	UNK0	0.000	
10	 H09	9.186	6.216	27.699	 H	1	UNK0	0.000	
11	 H03	3.744	5.959	23.977	 H	1	UNK0	0.000	
12	 H02	5.347	5.376	23.390	 H	1	UNK0	0.000	
13	 H13	4.061	1.528	24.047	 H	1	UNK0	0.000	
14	 H01	2.937	5.981	21.572	 H	1	UNK0	0.000	
15	 H08	7.538	9.705	22.932	 H	1	UNK0	0.000	
16	 H07	10.021	9.776	23.247	 H	1	UNK0	0.000	
17	 H24	11.603	-0.408	18.625	 H	1	UNK0	0.000	
18	 H06	7.079	6.979	26.364	 H	1	UNK0	0.000	
19	 H12	2.490	1.827	23.255	 H	1	UNK0	0.000	
20	 H11	11.665	6.297	28.033	 H	1	UNK0	0.000	
21	 H10	12.147	9.013	24.600	 H	1	UNK0	0.000	
22	 H21	7.255	1.175	20.920	 H	1	UNK0	0.000	
23	 H16	3.785	1.092	21.064	 H	1	UNK0	0.000	
24	 H15	3.177	-0.147	22.188	 H	1	UNK0	0.000	
25	 H14	4.895	0.315	22.217	 H	1	UNK0	0.000	
26	 H17	4.244	5.298	18.594	 H	1	UNK0	0.000	
27	 H20	5.962	0.982	16.811	 H	1	UNK0	0.000	
28	  C1	3.802	5.389	21.872	C.3	1	UNK0	0.000	
29	  C2	4.470	5.984	23.165	C.3	1	UNK0	0.000	
30	  N1	4.935	7.396	22.979	N.3	1	UNK0	0.000	
31	  C3	5.567	6.696	20.501	C.2	1	UNK0	0.000	
32	  O1	6.264	6.940	19.515	O.2	1	UNK0	0.000	
33	  C4	5.725	7.657	21.733	C.3	1	UNK0	0.000	
34	  N2	4.639	5.589	20.600	N.pl3	1	UNK0	0.000	
35	  S1	5.362	8.310	24.382	S.o2	1	UNK0	0.000	
36	  O2	4.633	7.671	25.588	O.2	1	UNK0	0.000	
37	  O3	4.826	9.741	24.200	O.2	1	UNK0	0.000	
38	  C5	7.716	7.572	25.708	C.2	1	UNK0	0.000	
39	  C6	7.103	8.333	24.629	C.2	1	UNK0	0.000	
40	  C7	10.052	8.414	25.012	C.2	1	UNK0	0.000	
41	  C8	9.410	9.176	23.921	C.2	1	UNK0	0.000	
42	  C9	7.985	9.132	23.744	C.2	1	UNK0	0.000	
43	 C10	9.161	7.579	25.940	C.2	1	UNK0	0.000	
44	 Cl1	13.841	7.698	26.614	Cl	1	UNK0	0.000	
45	 C11	9.799	6.819	27.030	C.2	1	UNK0	0.000	
46	 C12	11.502	8.423	25.252	C.2	1	UNK0	0.000	
47	 C13	11.219	6.867	27.218	C.2	1	UNK0	0.000	
48	 C14	12.094	7.665	26.339	C.2	1	UNK0	0.000	
49	 C15	3.148	4.022	22.175	C.2	1	UNK0	0.000	
50	  O4	1.953	3.817	22.052	O.co2	1	UNK0	0.000	
51	  O5	4.056	3.085	22.626	O.3	1	UNK0	0.000	
52	 C16	3.569	1.773	23.106	C.3	1	UNK0	0.000	
53	 C17	3.878	0.679	22.068	C.3	1	UNK0	0.000	
54	 C18	4.481	4.640	19.430	C.3	1	UNK0	0.000	
55	  N3	7.050	1.095	18.635	N.pl3	1	UNK0	0.000	
56	 C19	5.800	1.375	17.815	C.3	1	UNK0	0.000	
57	 C20	7.052	1.741	20.011	C.2	1	UNK0	0.000	
58	 C21	5.726	3.831	18.923	C.2	1	UNK0	0.000	
59	 C22	5.403	2.883	17.684	C.2	1	UNK0	0.000	
60	 C23	6.741	3.279	20.032	C.2	1	UNK0	0.000	
61	 C24	10.612	-0.477	18.176	C.2	1	UNK0	0.000	
62	 C25	8.200	0.258	18.119	C.2	1	UNK0	0.000	
63	 C26	9.558	0.340	18.709	C.2	1	UNK0	0.000	
64	 C27	8.038	-0.689	16.983	C.2	1	UNK0	0.000	
65	  N4	10.425	-1.350	17.115	N.2	1	UNK0	0.000	
66	 C28	9.172	-1.455	16.534	C.2	1	UNK0	0.000	
@<TRIPOS>BOND
1 14 28 1
2 28 29 1
3 28 34 1
4 28 49 1
5 11 29 1
6 12 29 1
7 29 30 1
8 30 33 1
9 30 35 1
10 31 32 2
11 31 33 1
12 31 34 1
13 2 33 1
14 9 33 1
15 34 54 1
16 35 36 2
17 35 37 2
18 35 39 1
19 18 38 1
20 38 39 2
21 38 43 1
22 39 42 1
23 40 41 1
24 40 43 1
25 40 46 2
26 16 41 1
27 41 42 2
28 15 42 1
29 43 45 2
30 44 48 1
31 10 45 1
32 45 47 1
33 21 46 1
34 46 48 1
35 20 47 1
36 47 48 2
37 49 50 2
38 49 51 1
39 51 52 1
40 13 52 1
41 19 52 1
42 52 53 1
43 23 53 1
44 24 53 1
45 25 53 1
46 3 54 1
47 26 54 1
48 54 58 1
49 55 56 1
50 55 57 1
51 55 62 1
52 1 56 1
53 27 56 1
54 56 59 1
55 22 57 1
56 57 60 2
57 58 59 2
58 58 60 1
59 4 59 1
60 6 60 1
61 17 61 1
62 61 63 1
63 61 65 2
64 62 63 2
65 62 64 1
66 8 63 1
67 5 64 1
68 64 66 2
69 65 66 1
70 7 66 1
@<TRIPOS>SUBSTRUCTURE
1	UNK0	1	GROUP	1 ****	UNK
