# created with PyMOL 2.5.0
@<TRIPOS>MOLECULE
MOL
46 50 1                 
SMALL
USER_CHARGES
@<TRIPOS>ATOM
1	 H12	3.339	8.250	22.030	 H	1	UNK0	0.000	
2	 H09	11.096	0.035	18.275	 H	1	UNK0	0.000	
3	 H04	1.891	5.481	23.671	 H	1	UNK0	0.000	
4	 H10	7.519	1.653	21.247	 H	1	UNK0	0.000	
5	 H15	9.790	9.425	25.180	 H	1	UNK0	0.000	
6	 H11	3.037	7.962	23.739	 H	1	UNK0	0.000	
7	 H13	8.419	7.420	25.788	 H	1	UNK0	0.000	
8	 H17	5.564	6.872	25.095	 H	1	UNK0	0.000	
9	 H05	3.345	5.591	24.620	 H	1	UNK0	0.000	
10	 H14	10.203	7.941	24.129	 H	1	UNK0	0.000	
11	 H03	2.595	3.265	23.353	 H	1	UNK0	0.000	
12	 H02	4.254	3.613	23.745	 H	1	UNK0	0.000	
13	 H01	2.856	3.864	21.043	 H	1	UNK0	0.000	
14	 H16	8.298	10.175	21.564	 H	1	UNK0	0.000	
15	 H08	9.912	-0.703	16.172	 H	1	UNK0	0.000	
16	 H07	7.374	-0.494	16.067	 H	1	UNK0	0.000	
17	 H06	5.296	3.718	20.581	 H	1	UNK0	0.000	
18	  N1	3.587	6.246	22.628	N.pl3	1	UNK0	0.000	
19	  C1	4.018	5.607	21.515	C.2	1	UNK0	0.000	
20	  C2	3.686	4.144	21.691	C.3	1	UNK0	0.000	
21	  C3	3.395	3.986	23.186	C.3	1	UNK0	0.000	
22	  C4	2.974	5.367	23.620	C.3	1	UNK0	0.000	
23	  O1	4.560	6.115	20.541	O.2	1	UNK0	0.000	
24	  N2	4.804	3.276	21.345	N.3	1	UNK0	0.000	
25	  S1	4.506	1.735	20.893	S.o2	1	UNK0	0.000	
26	  O2	3.266	1.933	20.208	O.2	1	UNK0	0.000	
27	  O3	4.551	0.977	22.113	O.2	1	UNK0	0.000	
28	  C5	7.228	0.352	18.078	C.2	1	UNK0	0.000	
29	  C6	7.920	-0.181	16.957	C.2	1	UNK0	0.000	
30	  C7	9.348	-0.301	17.014	C.2	1	UNK0	0.000	
31	  C8	10.011	0.123	18.211	C.2	1	UNK0	0.000	
32	  N3	9.318	0.637	19.281	N.2	1	UNK0	0.000	
33	  C9	7.927	0.756	19.219	C.2	1	UNK0	0.000	
34	 C10	7.148	1.288	20.290	C.2	1	UNK0	0.000	
35	 C11	5.792	1.247	19.861	C.2	1	UNK0	0.000	
36	  S2	5.581	0.605	18.289	S.3	1	UNK0	0.000	
37	 C12	3.673	7.682	22.899	C.3	1	UNK0	0.000	
38	 C13	7.120	8.884	22.890	C.2	1	UNK0	0.000	
39	 C14	7.165	8.090	24.110	C.2	1	UNK0	0.000	
40	 C15	8.367	8.010	24.873	C.2	1	UNK0	0.000	
41	 C16	9.500	8.732	24.390	C.3	1	UNK0	0.000	
42	  N4	9.413	9.464	23.236	N.2	1	UNK0	0.000	
43	 C17	8.296	9.574	22.473	C.2	1	UNK0	0.000	
44	 C18	5.892	7.525	24.286	C.2	1	UNK0	0.000	
45	 C19	5.129	7.982	23.192	C.2	1	UNK0	0.000	
46	  N5	5.846	8.775	22.376	N.2	1	UNK0	0.000	
@<TRIPOS>BOND
1 18 19 1
2 18 22 1
3 18 37 1
4 19 20 1
5 19 23 2
6 13 20 1
7 20 21 1
8 20 24 1
9 11 21 1
10 12 21 1
11 21 22 1
12 3 22 1
13 9 22 1
14 17 24 1
15 24 25 1
16 25 26 2
17 25 27 2
18 25 35 1
19 28 29 1
20 28 33 2
21 28 36 1
22 16 29 1
23 29 30 2
24 15 30 1
25 30 31 1
26 2 31 1
27 31 32 2
28 32 33 1
29 33 34 1
30 4 34 1
31 34 35 2
32 35 36 1
33 1 37 1
34 6 37 1
35 37 45 1
36 38 39 1
37 38 43 1
38 38 46 2
39 39 40 2
40 39 44 1
41 7 40 1
42 40 41 1
43 5 41 1
44 10 41 1
45 41 42 1
46 42 43 2
47 14 43 1
48 8 44 1
49 44 45 2
50 45 46 1
@<TRIPOS>SUBSTRUCTURE
1	UNK0	1	GROUP	1 ****	UNK
