# created with PyMOL 2.5.0
@<TRIPOS>MOLECULE
MOL
46 50 1                 
SMALL
USER_CHARGES
@<TRIPOS>ATOM
1	 H12	5.545	8.563	22.327	 H	1	UNK0	0.000	
2	 H09	11.009	-0.123	18.166	 H	1	UNK0	0.000	
3	 H04	7.761	6.463	21.300	 H	1	UNK0	0.000	
4	 H10	7.648	1.661	21.291	 H	1	UNK0	0.000	
5	 H15	12.090	8.252	25.244	 H	1	UNK0	0.000	
6	 H11	4.908	7.688	23.713	 H	1	UNK0	0.000	
7	 H13	10.844	9.810	23.731	 H	1	UNK0	0.000	
8	 H17	8.194	9.366	22.423	 H	1	UNK0	0.000	
9	 H05	6.516	7.305	20.425	 H	1	UNK0	0.000	
10	 H14	11.260	9.635	26.181	 H	1	UNK0	0.000	
11	 H03	7.142	4.673	19.914	 H	1	UNK0	0.000	
12	 H02	5.574	5.337	19.561	 H	1	UNK0	0.000	
13	 H01	6.403	3.597	21.928	 H	1	UNK0	0.000	
14	 H16	9.018	6.603	27.169	 H	1	UNK0	0.000	
15	 H08	9.702	-0.782	16.109	 H	1	UNK0	0.000	
16	 H07	7.176	-0.438	16.110	 H	1	UNK0	0.000	
17	 H06	3.754	3.839	21.440	 H	1	UNK0	0.000	
18	  N1	5.852	6.481	22.251	N.pl3	1	UNK0	0.000	
19	  C1	5.252	5.302	22.544	C.2	1	UNK0	0.000	
20	  C2	5.699	4.310	21.498	C.3	1	UNK0	0.000	
21	  C3	6.283	5.165	20.370	C.3	1	UNK0	0.000	
22	  C4	6.698	6.439	21.062	C.3	1	UNK0	0.000	
23	  O1	4.502	5.076	23.486	O.2	1	UNK0	0.000	
24	  N2	4.588	3.535	20.959	N.3	1	UNK0	0.000	
25	  S1	4.631	1.905	21.061	S.o2	1	UNK0	0.000	
26	  O2	3.300	1.613	20.626	O.2	1	UNK0	0.000	
27	  O3	5.031	1.630	22.413	O.2	1	UNK0	0.000	
28	  C5	7.158	0.400	18.130	C.2	1	UNK0	0.000	
29	  C6	7.775	-0.161	16.978	C.2	1	UNK0	0.000	
30	  C7	9.196	-0.357	16.976	C.2	1	UNK0	0.000	
31	  C8	9.929	0.023	18.147	C.2	1	UNK0	0.000	
32	  N3	9.308	0.566	19.246	N.2	1	UNK0	0.000	
33	  C9	7.924	0.759	19.243	C.2	1	UNK0	0.000	
34	 C10	7.219	1.323	20.347	C.2	1	UNK0	0.000	
35	 C11	5.847	1.357	19.974	C.2	1	UNK0	0.000	
36	  S2	5.537	0.738	18.410	S.3	1	UNK0	0.000	
37	 C12	5.736	7.731	23.004	C.3	1	UNK0	0.000	
38	 C13	8.584	7.643	25.287	C.2	1	UNK0	0.000	
39	 C14	9.119	8.570	24.300	C.2	1	UNK0	0.000	
40	 C15	10.428	9.114	24.459	C.2	1	UNK0	0.000	
41	 C16	11.171	8.711	25.609	C.3	1	UNK0	0.000	
42	  N4	10.626	7.838	26.514	N.2	1	UNK0	0.000	
43	 C17	9.388	7.292	26.411	C.2	1	UNK0	0.000	
44	 C18	8.136	8.741	23.313	C.2	1	UNK0	0.000	
45	 C19	7.057	7.930	23.720	C.2	1	UNK0	0.000	
46	  N5	7.317	7.289	24.874	N.2	1	UNK0	0.000	
@<TRIPOS>BOND
1 18 19 1
2 18 22 1
3 18 37 1
4 19 20 1
5 19 23 2
6 13 20 1
7 20 21 1
8 20 24 1
9 11 21 1
10 12 21 1
11 21 22 1
12 3 22 1
13 9 22 1
14 17 24 1
15 24 25 1
16 25 26 2
17 25 27 2
18 25 35 1
19 28 29 1
20 28 33 2
21 28 36 1
22 16 29 1
23 29 30 2
24 15 30 1
25 30 31 1
26 2 31 1
27 31 32 2
28 32 33 1
29 33 34 1
30 4 34 1
31 34 35 2
32 35 36 1
33 1 37 1
34 6 37 1
35 37 45 1
36 38 39 1
37 38 43 1
38 38 46 2
39 39 40 2
40 39 44 1
41 7 40 1
42 40 41 1
43 5 41 1
44 10 41 1
45 41 42 1
46 42 43 2
47 14 43 1
48 8 44 1
49 44 45 2
50 45 46 1
@<TRIPOS>SUBSTRUCTURE
1	UNK0	1	GROUP	1 ****	UNK
