# created with PyMOL 2.5.0
@<TRIPOS>MOLECULE
MOL
34 36 1                 
SMALL
USER_CHARGES
@<TRIPOS>ATOM
1	  C1	5.713	4.845	20.596	C.2	1	UNK0	0.000	
2	  N1	6.521	5.904	20.943	N.pl3	1	UNK0	0.000	
3	  O1	4.501	4.848	20.840	O.2	1	UNK0	0.000	
4	  C2	7.680	3.260	20.354	C.2	1	UNK0	0.000	
5	  C3	6.396	3.706	19.922	C.2	1	UNK0	0.000	
6	  C4	5.789	3.022	18.823	C.2	1	UNK0	0.000	
7	  C5	6.451	1.934	18.190	C.2	1	UNK0	0.000	
8	  C6	7.727	1.494	18.623	C.2	1	UNK0	0.000	
9	  C7	8.324	2.178	19.714	C.2	1	UNK0	0.000	
10	  C8	7.782	-0.453	16.967	C.2	1	UNK0	0.000	
11	  C9	8.434	0.335	17.949	C.2	1	UNK0	0.000	
12	 C10	9.772	0.001	18.278	C.2	1	UNK0	0.000	
13	 C11	10.450	-1.077	17.655	C.2	1	UNK0	0.000	
14	 C12	9.791	-1.859	16.676	C.2	1	UNK0	0.000	
15	 C13	8.450	-1.545	16.329	C.2	1	UNK0	0.000	
16	 C14	7.731	-2.362	15.292	C.3	1	UNK0	0.000	
17	  N2	8.596	-2.647	14.142	N.3	1	UNK0	0.000	
18	 C15	6.025	7.109	21.621	C.3	1	UNK0	0.000	
19	 C16	6.542	8.338	20.857	C.3	1	UNK0	0.000	
20	 C17	6.489	7.080	23.126	C.3	1	UNK0	0.000	
21	 C18	5.273	6.694	24.012	C.2	1	UNK0	0.000	
22	  O2	4.706	5.637	23.977	O.co2	1	UNK0	0.000	
23	  O3	4.969	7.700	24.978	O.3	1	UNK0	0.000	
24	 C19	3.618	8.165	25.120	C.3	1	UNK0	0.000	
25	 C20	7.077	8.473	23.562	C.3	1	UNK0	0.000	
26	 C21	8.681	7.703	25.440	C.2	1	UNK0	0.000	
27	 C22	9.948	7.746	26.073	C.2	1	UNK0	0.000	
28	 C23	10.966	8.583	25.540	C.2	1	UNK0	0.000	
29	 C24	10.714	9.360	24.393	C.2	1	UNK0	0.000	
30	 C25	9.452	9.310	23.770	C.2	1	UNK0	0.000	
31	 C26	8.418	8.483	24.281	C.2	1	UNK0	0.000	
32	 C27	10.215	6.942	27.271	C.2	1	UNK0	0.000	
33	  N3	11.415	6.354	27.446	N.2	1	UNK0	0.000	
34	  N4	9.265	6.787	28.204	N.pl3	1	UNK0	0.000	
@<TRIPOS>BOND
1 1 2 1
2 1 3 2
3 1 5 1
4 2 18 1
5 4 5 1
6 4 9 2
7 5 6 2
8 6 7 1
9 7 8 2
10 8 9 1
11 8 11 1
12 10 11 1
13 10 15 2
14 11 12 2
15 12 13 1
16 13 14 2
17 14 15 1
18 15 16 1
19 16 17 1
20 18 19 1
21 18 20 1
22 20 21 1
23 20 25 1
24 21 22 2
25 21 23 1
26 23 24 1
27 25 31 1
28 26 27 1
29 26 31 2
30 27 28 2
31 27 32 1
32 28 29 1
33 29 30 2
34 30 31 1
35 32 33 2
36 32 34 1
@<TRIPOS>SUBSTRUCTURE
1	UNK0	1	GROUP	1 ****	UNK
