# created with PyMOL 2.5.0
@<TRIPOS>MOLECULE
MOL
29 33 1                 
SMALL
USER_CHARGES
@<TRIPOS>ATOM
1	  N1	5.852	6.481	22.251	N.pl3	1	UNK0	0.000	
2	  C1	5.252	5.302	22.544	C.2	1	UNK0	0.000	
3	  C2	5.699	4.310	21.498	C.3	1	UNK0	0.000	
4	  C3	6.283	5.165	20.370	C.3	1	UNK0	0.000	
5	  C4	6.698	6.439	21.062	C.3	1	UNK0	0.000	
6	  O1	4.502	5.076	23.486	O.2	1	UNK0	0.000	
7	  N2	4.588	3.535	20.959	N.3	1	UNK0	0.000	
8	  S1	4.631	1.905	21.061	S.o2	1	UNK0	0.000	
9	  O2	3.300	1.613	20.626	O.2	1	UNK0	0.000	
10	  O3	5.031	1.630	22.413	O.2	1	UNK0	0.000	
11	  C5	7.158	0.400	18.130	C.2	1	UNK0	0.000	
12	  C6	7.775	-0.161	16.978	C.2	1	UNK0	0.000	
13	  C7	9.196	-0.357	16.976	C.2	1	UNK0	0.000	
14	  C8	9.929	0.023	18.147	C.2	1	UNK0	0.000	
15	  N3	9.308	0.566	19.246	N.2	1	UNK0	0.000	
16	  C9	7.924	0.759	19.243	C.2	1	UNK0	0.000	
17	 C10	7.219	1.323	20.347	C.2	1	UNK0	0.000	
18	 C11	5.847	1.357	19.974	C.2	1	UNK0	0.000	
19	  S2	5.537	0.738	18.410	S.3	1	UNK0	0.000	
20	 C12	5.736	7.731	23.004	C.3	1	UNK0	0.000	
21	 C13	8.584	7.643	25.287	C.2	1	UNK0	0.000	
22	 C14	9.119	8.570	24.300	C.2	1	UNK0	0.000	
23	 C15	10.428	9.114	24.459	C.2	1	UNK0	0.000	
24	 C16	11.171	8.711	25.609	C.3	1	UNK0	0.000	
25	  N4	10.626	7.838	26.514	N.2	1	UNK0	0.000	
26	 C17	9.388	7.292	26.411	C.2	1	UNK0	0.000	
27	 C18	8.136	8.741	23.313	C.2	1	UNK0	0.000	
28	 C19	7.057	7.930	23.720	C.2	1	UNK0	0.000	
29	  N5	7.317	7.289	24.874	N.2	1	UNK0	0.000	
@<TRIPOS>BOND
1 1 2 1
2 1 5 1
3 1 20 1
4 2 3 1
5 2 6 2
6 3 4 1
7 3 7 1
8 4 5 1
9 7 8 1
10 8 9 2
11 8 10 2
12 8 18 1
13 11 12 1
14 11 16 2
15 11 19 1
16 12 13 2
17 13 14 1
18 14 15 2
19 15 16 1
20 16 17 1
21 17 18 2
22 18 19 1
23 20 28 1
24 21 22 1
25 21 26 1
26 21 29 2
27 22 23 2
28 22 27 1
29 23 24 1
30 24 25 1
31 25 26 2
32 27 28 2
33 28 29 1
@<TRIPOS>SUBSTRUCTURE
1	UNK0	1	GROUP	1 ****	UNK
