# created with PyMOL 2.5.0
@<TRIPOS>MOLECULE
MOL
32 36 1                 
SMALL
USER_CHARGES
@<TRIPOS>ATOM
1	  N1	8.129	6.249	20.646	N.2	1	UNK0	0.000	
2	  C1	7.212	7.247	20.998	C.2	1	UNK0	0.000	
3	  N2	5.913	6.902	21.406	N.pl3	1	UNK0	0.000	
4	  C2	6.026	5.522	21.302	C.2	1	UNK0	0.000	
5	  C3	7.343	5.138	20.849	C.2	1	UNK0	0.000	
6	  C4	5.042	4.517	21.572	C.2	1	UNK0	0.000	
7	  C5	5.378	3.170	21.399	C.2	1	UNK0	0.000	
8	  C6	6.674	2.778	20.954	C.2	1	UNK0	0.000	
9	  C7	7.668	3.757	20.675	C.2	1	UNK0	0.000	
10	  C8	4.760	7.746	21.828	C.3	1	UNK0	0.000	
11	  C9	7.656	8.720	20.930	C.3	1	UNK0	0.000	
12	  N3	7.893	9.396	22.224	N.pl3	1	UNK0	0.000	
13	 C10	9.489	7.649	25.826	C.2	1	UNK0	0.000	
14	 C11	10.253	8.580	25.047	C.2	1	UNK0	0.000	
15	 C12	9.737	9.151	23.873	C.2	1	UNK0	0.000	
16	 C13	8.439	8.821	23.424	C.2	1	UNK0	0.000	
17	 C14	7.654	7.910	24.159	C.2	1	UNK0	0.000	
18	 C15	8.167	7.329	25.344	C.2	1	UNK0	0.000	
19	  N4	9.325	6.924	28.102	N.pl3	1	UNK0	0.000	
20	  N5	11.225	6.596	27.115	N.2	1	UNK0	0.000	
21	 C16	10.010	7.086	26.994	C.2	1	UNK0	0.000	
22	 C17	6.981	1.278	20.790	C.3	1	UNK0	0.000	
23	  N6	6.905	0.787	19.366	N.pl3	1	UNK0	0.000	
24	 C18	7.903	0.431	18.427	C.2	1	UNK0	0.000	
25	  N7	7.578	-0.004	17.144	N.2	1	UNK0	0.000	
26	 C19	6.204	0.072	17.246	C.2	1	UNK0	0.000	
27	 C20	5.798	0.542	18.555	C.2	1	UNK0	0.000	
28	 C21	5.220	-0.244	16.255	C.2	1	UNK0	0.000	
29	 C22	3.854	-0.094	16.576	C.2	1	UNK0	0.000	
30	 C23	3.450	0.363	17.854	C.2	1	UNK0	0.000	
31	 C24	4.399	0.681	18.851	C.2	1	UNK0	0.000	
32	 C25	9.380	0.505	18.781	C.3	1	UNK0	0.000	
@<TRIPOS>BOND
1 1 2 2
2 1 5 1
3 2 3 1
4 2 11 1
5 3 4 1
6 3 10 1
7 4 5 1
8 4 6 2
9 5 9 2
10 6 7 1
11 7 8 2
12 8 9 1
13 8 22 1
14 11 12 1
15 12 16 1
16 13 14 1
17 13 18 2
18 13 21 1
19 14 15 2
20 15 16 1
21 16 17 2
22 17 18 1
23 19 21 1
24 20 21 2
25 22 23 1
26 23 24 1
27 23 27 1
28 24 25 2
29 24 32 1
30 25 26 1
31 26 27 1
32 26 28 2
33 27 31 2
34 28 29 1
35 29 30 2
36 30 31 1
@<TRIPOS>SUBSTRUCTURE
1	UNK0	1	GROUP	1 ****	UNK
