# created with PyMOL 2.5.0
@<TRIPOS>MOLECULE
MOL
31 35 1                 
SMALL
USER_CHARGES
@<TRIPOS>ATOM
1	  N1	5.652	6.137	22.524	N.pl3	1	UNK0	0.000	
2	  C1	4.962	4.990	22.703	C.2	1	UNK0	0.000	
3	  C2	5.390	4.003	21.631	C.3	1	UNK0	0.000	
4	  C3	6.068	4.902	20.589	C.3	1	UNK0	0.000	
5	  C4	6.570	6.093	21.381	C.3	1	UNK0	0.000	
6	  O1	4.132	4.753	23.573	O.2	1	UNK0	0.000	
7	  N2	4.246	3.308	21.084	N.3	1	UNK0	0.000	
8	  S1	4.311	1.576	21.010	S.o2	1	UNK0	0.000	
9	  O2	2.996	1.294	20.476	O.2	1	UNK0	0.000	
10	  O3	4.653	1.184	22.352	O.2	1	UNK0	0.000	
11	  C5	7.106	0.383	18.072	C.2	1	UNK0	0.000	
12	  C6	7.835	-0.031	16.965	C.2	1	UNK0	0.000	
13	  C7	9.247	-0.186	17.023	C.2	1	UNK0	0.000	
14	  C8	9.908	0.087	18.246	C.2	1	UNK0	0.000	
15	  N3	9.209	0.497	19.344	N.2	1	UNK0	0.000	
16	  C9	7.835	0.648	19.288	C.2	1	UNK0	0.000	
17	 C10	6.910	1.072	20.340	C.2	1	UNK0	0.000	
18	 C11	5.578	1.104	19.899	C.2	1	UNK0	0.000	
19	  S2	5.444	0.638	18.251	S.3	1	UNK0	0.000	
20	 C12	5.539	7.336	23.372	C.3	1	UNK0	0.000	
21	 C13	7.497	8.942	22.899	C.2	1	UNK0	0.000	
22	 C14	8.786	9.439	23.219	C.2	1	UNK0	0.000	
23	 C15	9.512	8.920	24.343	C.2	1	UNK0	0.000	
24	 C16	8.944	7.871	25.185	C.2	1	UNK0	0.000	
25	 C17	7.665	7.360	24.890	C.2	1	UNK0	0.000	
26	 C18	6.890	7.916	23.688	C.2	1	UNK0	0.000	
27	 C19	10.807	9.429	24.644	C.2	1	UNK0	0.000	
28	 C20	11.481	8.885	25.755	C.2	1	UNK0	0.000	
29	  N4	10.953	7.896	26.553	N.2	1	UNK0	0.000	
30	 C21	9.702	7.387	26.284	C.2	1	UNK0	0.000	
31	  N5	9.263	6.425	27.113	N.pl3	1	UNK0	0.000	
@<TRIPOS>BOND
1 1 2 1
2 1 5 1
3 1 20 1
4 2 3 1
5 2 6 2
6 3 4 1
7 3 7 1
8 4 5 1
9 7 8 1
10 8 9 2
11 8 10 2
12 8 18 1
13 11 12 1
14 11 16 2
15 11 19 1
16 12 13 2
17 13 14 1
18 14 15 2
19 15 16 1
20 16 17 1
21 17 18 2
22 18 19 1
23 20 26 1
24 21 22 2
25 21 26 1
26 22 23 1
27 23 24 1
28 23 27 2
29 24 25 1
30 24 30 2
31 25 26 2
32 27 28 1
33 28 29 2
34 29 30 1
35 30 31 1
@<TRIPOS>SUBSTRUCTURE
1	UNK0	1	GROUP	1 ****	UNK
