# created with PyMOL 2.5.0
@<TRIPOS>MOLECULE
MOL
38 43 1                 
SMALL
USER_CHARGES
@<TRIPOS>ATOM
1	  C1	4.656	6.256	18.251	C.2	1	UNK0	0.000	
2	  O1	5.157	7.173	17.605	O.2	1	UNK0	0.000	
3	  C2	4.403	4.880	17.538	C.3	1	UNK0	0.000	
4	  N1	3.784	3.791	18.340	N.3	1	UNK0	0.000	
5	  C3	3.680	5.210	20.434	C.3	1	UNK0	0.000	
6	  C4	4.078	3.812	19.788	C.3	1	UNK0	0.000	
7	  N2	4.285	6.339	19.640	N.pl3	1	UNK0	0.000	
8	  C5	4.876	7.287	20.604	C.3	1	UNK0	0.000	
9	  N3	7.576	7.731	23.226	N.pl3	1	UNK0	0.000	
10	  C6	7.820	6.908	21.935	C.3	1	UNK0	0.000	
11	  C7	6.124	8.204	23.508	C.3	1	UNK0	0.000	
12	  C8	5.234	6.377	21.826	C.3	1	UNK0	0.000	
13	  O2	4.260	5.294	21.733	O.3	1	UNK0	0.000	
14	  C9	6.723	5.813	21.758	C.3	1	UNK0	0.000	
15	 C10	5.078	7.067	23.238	C.3	1	UNK0	0.000	
16	 C11	10.819	9.286	24.726	C.2	1	UNK0	0.000	
17	 C12	8.703	8.057	24.163	C.2	1	UNK0	0.000	
18	 C13	9.769	9.018	23.796	C.2	1	UNK0	0.000	
19	 C14	8.811	7.433	25.504	C.2	1	UNK0	0.000	
20	  N4	10.891	8.684	25.972	N.2	1	UNK0	0.000	
21	 C15	9.914	7.781	26.353	C.2	1	UNK0	0.000	
22	  S1	3.431	2.232	17.806	S.o2	1	UNK0	0.000	
23	  O3	2.649	2.393	16.471	O.2	1	UNK0	0.000	
24	  O4	2.603	1.475	18.861	O.2	1	UNK0	0.000	
25	 C16	6.052	1.632	18.337	C.2	1	UNK0	0.000	
26	 C17	4.913	1.398	17.463	C.2	1	UNK0	0.000	
27	 C18	7.415	-0.163	17.029	C.2	1	UNK0	0.000	
28	 C19	6.245	-0.389	16.151	C.2	1	UNK0	0.000	
29	 C20	5.032	0.370	16.362	C.2	1	UNK0	0.000	
30	 C21	7.301	0.905	18.177	C.2	1	UNK0	0.000	
31	 Cl1	11.301	-1.444	17.583	Cl	1	UNK0	0.000	
32	 C22	8.462	1.149	19.059	C.2	1	UNK0	0.000	
33	 C23	8.673	-0.873	16.881	C.2	1	UNK0	0.000	
34	 C24	9.670	0.412	18.851	C.2	1	UNK0	0.000	
35	 C25	9.790	-0.594	17.776	C.2	1	UNK0	0.000	
36	 C26	2.103	5.202	20.594	C.3	1	UNK0	0.000	
37	  O5	1.391	6.039	19.642	O.3	1	UNK0	0.000	
38	 C27	0.544	5.402	18.777	C.3	1	UNK0	0.000	
@<TRIPOS>BOND
1 1 2 2
2 1 3 1
3 1 7 1
4 3 4 1
5 4 6 1
6 4 22 1
7 5 6 1
8 5 7 1
9 5 13 1
10 5 36 1
11 7 8 1
12 8 12 1
13 9 10 1
14 9 11 1
15 9 17 1
16 10 14 1
17 11 15 1
18 12 13 1
19 12 14 1
20 12 15 1
21 16 18 2
22 16 20 1
23 17 18 1
24 17 19 2
25 19 21 1
26 20 21 2
27 22 23 2
28 22 24 2
29 22 26 1
30 25 26 2
31 25 30 1
32 26 29 1
33 27 28 1
34 27 30 1
35 27 33 2
36 28 29 2
37 30 32 2
38 31 35 1
39 32 34 1
40 33 35 1
41 34 35 2
42 36 37 1
43 37 38 1
@<TRIPOS>SUBSTRUCTURE
1	UNK0	1	GROUP	1 ****	UNK
