# created with PyMOL 2.5.0
@<TRIPOS>MOLECULE
MOL
70 74 1                 
SMALL
USER_CHARGES
@<TRIPOS>ATOM
1	 H28	7.704	7.266	26.014	 H	1	UNK0	0.000	
2	 H30	8.336	6.914	28.022	 H	1	UNK0	0.000	
3	 H27	7.180	8.479	23.863	 H	1	UNK0	0.000	
4	 H01	4.331	5.825	22.595	 H	1	UNK0	0.000	
5	 H13	10.620	-1.435	16.817	 H	1	UNK0	0.000	
6	 H31	11.577	6.360	28.543	 H	1	UNK0	0.000	
7	 H03	8.419	3.966	20.131	 H	1	UNK0	0.000	
8	 H26	11.394	9.710	23.540	 H	1	UNK0	0.000	
9	 H09	7.123	-0.003	21.908	 H	1	UNK0	0.000	
10	 H04	4.511	8.218	22.690	 H	1	UNK0	0.000	
11	 H07	4.137	1.235	21.198	 H	1	UNK0	0.000	
12	 H06	5.279	9.546	21.787	 H	1	UNK0	0.000	
13	 H17	6.904	8.553	17.701	 H	1	UNK0	0.000	
14	 H05	5.902	9.081	23.389	 H	1	UNK0	0.000	
15	 H12	11.189	0.118	18.727	 H	1	UNK0	0.000	
16	 H11	9.437	1.610	19.765	 H	1	UNK0	0.000	
17	 H02	4.495	3.388	22.096	 H	1	UNK0	0.000	
18	 H10	6.530	1.148	22.745	 H	1	UNK0	0.000	
19	 H16	5.467	4.444	16.775	 H	1	UNK0	0.000	
20	 H15	3.744	4.017	16.938	 H	1	UNK0	0.000	
21	 H14	8.251	-1.488	15.917	 H	1	UNK0	0.000	
22	 H25	11.926	8.519	25.672	 H	1	UNK0	0.000	
23	 H20	4.887	8.163	19.579	 H	1	UNK0	0.000	
24	 H19	6.184	9.831	18.709	 H	1	UNK0	0.000	
25	 H18	5.581	9.554	17.057	 H	1	UNK0	0.000	
26	 H21	3.976	8.265	18.053	 H	1	UNK0	0.000	
27	 H24	9.059	10.853	22.279	 H	1	UNK0	0.000	
28	 H23	9.124	9.202	20.292	 H	1	UNK0	0.000	
29	 H22	7.530	9.975	20.707	 H	1	UNK0	0.000	
30	 H08	4.841	0.273	20.221	 H	1	UNK0	0.000	
31	 H29	9.631	6.288	29.019	 H	1	UNK0	0.000	
32	  N1	8.331	6.797	20.632	N.2	1	UNK0	0.000	
33	  C1	7.650	7.896	21.174	C.2	1	UNK0	0.000	
34	  N2	6.394	7.724	21.814	N.pl3	1	UNK0	0.000	
35	  C2	6.278	6.338	21.648	C.2	1	UNK0	0.000	
36	  C3	7.451	5.794	20.938	C.2	1	UNK0	0.000	
37	  C4	5.201	5.435	22.067	C.2	1	UNK0	0.000	
38	  C5	5.303	4.046	21.778	C.2	1	UNK0	0.000	
39	  C6	6.454	3.457	21.067	C.2	1	UNK0	0.000	
40	  C7	7.547	4.363	20.650	C.2	1	UNK0	0.000	
41	  C8	5.457	8.711	22.465	C.3	1	UNK0	0.000	
42	  C9	5.173	1.036	20.926	C.3	1	UNK0	0.000	
43	 C10	6.470	0.845	21.700	C.3	1	UNK0	0.000	
44	 C11	6.395	1.910	20.593	C.3	1	UNK0	0.000	
45	 C12	6.672	1.834	19.018	C.2	1	UNK0	0.000	
46	  N3	6.010	2.581	18.160	N.2	1	UNK0	0.000	
47	  N4	7.507	0.032	17.338	N.2	1	UNK0	0.000	
48	 C13	7.811	0.920	18.434	C.2	1	UNK0	0.000	
49	 C14	9.172	0.949	18.941	C.2	1	UNK0	0.000	
50	 C15	10.169	0.093	18.343	C.2	1	UNK0	0.000	
51	 C16	9.851	-0.795	17.251	C.2	1	UNK0	0.000	
52	 C17	8.511	-0.826	16.743	C.2	1	UNK0	0.000	
53	  O1	4.936	3.535	18.559	O.3	1	UNK0	0.000	
54	 C18	4.620	4.404	17.459	C.3	1	UNK0	0.000	
55	 C19	4.313	5.826	17.980	C.2	1	UNK0	0.000	
56	  O2	3.132	6.129	18.224	O.co2	1	UNK0	0.000	
57	  O3	5.368	6.721	18.158	O.3	1	UNK0	0.000	
58	 C20	5.980	9.075	17.951	C.3	1	UNK0	0.000	
59	 C21	4.952	8.065	18.495	C.3	1	UNK0	0.000	
60	 C22	8.318	9.290	21.020	C.3	1	UNK0	0.000	
61	  N5	8.892	9.857	22.290	N.pl3	1	UNK0	0.000	
62	 C23	9.875	7.774	26.051	C.2	1	UNK0	0.000	
63	 C24	10.904	8.500	25.293	C.2	1	UNK0	0.000	
64	 C25	10.603	9.183	24.074	C.2	1	UNK0	0.000	
65	 C26	9.244	9.180	23.538	C.2	1	UNK0	0.000	
66	 C27	8.198	8.482	24.253	C.2	1	UNK0	0.000	
67	 C28	8.502	7.789	25.487	C.2	1	UNK0	0.000	
68	  N6	9.320	6.737	28.169	N.pl3	1	UNK0	0.000	
69	  N7	11.431	6.814	27.653	N.2	1	UNK0	0.000	
70	 C29	10.204	7.095	27.246	C.2	1	UNK0	0.000	
@<TRIPOS>BOND
1 32 33 2
2 32 36 1
3 33 34 1
4 33 60 1
5 34 35 1
6 34 41 1
7 35 36 1
8 35 37 2
9 36 40 2
10 4 37 1
11 37 38 1
12 17 38 1
13 38 39 2
14 39 40 1
15 39 44 1
16 7 40 1
17 10 41 1
18 12 41 1
19 14 41 1
20 11 42 1
21 30 42 1
22 42 43 1
23 42 44 1
24 9 43 1
25 18 43 1
26 43 44 1
27 44 45 1
28 45 46 2
29 45 48 1
30 46 53 1
31 47 48 1
32 47 52 2
33 48 49 2
34 16 49 1
35 49 50 1
36 15 50 1
37 50 51 2
38 5 51 1
39 51 52 1
40 21 52 1
41 53 54 1
42 19 54 1
43 20 54 1
44 54 55 1
45 55 56 2
46 55 57 1
47 57 59 1
48 13 58 1
49 24 58 1
50 25 58 1
51 58 59 1
52 23 59 1
53 26 59 1
54 28 60 1
55 29 60 1
56 60 61 1
57 27 61 1
58 61 65 1
59 62 63 1
60 62 67 2
61 62 70 1
62 22 63 1
63 63 64 2
64 8 64 1
65 64 65 1
66 65 66 2
67 3 66 1
68 66 67 1
69 1 67 1
70 2 68 1
71 31 68 1
72 68 70 1
73 6 69 1
74 69 70 2
@<TRIPOS>SUBSTRUCTURE
1	UNK0	1	GROUP	1 ****	UNK
