# created with PyMOL 2.5.0
@<TRIPOS>MOLECULE
MOL
39 43 1                 
SMALL
USER_CHARGES
@<TRIPOS>ATOM
1	  C1	4.378	4.591	21.227	C.3	1	UNK0	0.000	
2	  C2	3.976	3.358	20.337	C.3	1	UNK0	0.000	
3	  N1	4.663	3.355	19.006	N.3	1	UNK0	0.000	
4	  C3	4.420	5.995	19.051	C.2	1	UNK0	0.000	
5	  O1	4.372	7.030	18.385	O.2	1	UNK0	0.000	
6	  C4	4.632	4.654	18.261	C.3	1	UNK0	0.000	
7	  N2	4.280	5.936	20.491	N.pl3	1	UNK0	0.000	
8	  S1	4.613	1.909	18.061	S.o2	1	UNK0	0.000	
9	  O2	4.110	2.297	16.651	O.2	1	UNK0	0.000	
10	  O3	3.579	0.962	18.696	O.2	1	UNK0	0.000	
11	  C5	6.455	0.069	17.031	C.2	1	UNK0	0.000	
12	  C6	6.190	1.136	17.986	C.2	1	UNK0	0.000	
13	  C7	8.871	-0.150	17.905	C.2	1	UNK0	0.000	
14	  C8	8.582	0.935	18.864	C.2	1	UNK0	0.000	
15	  C9	7.284	1.550	18.896	C.2	1	UNK0	0.000	
16	 C10	7.756	-0.596	16.951	C.2	1	UNK0	0.000	
17	 Cl1	11.991	-2.697	16.801	Cl	1	UNK0	0.000	
18	 C11	8.042	-1.681	15.995	C.2	1	UNK0	0.000	
19	 C12	10.175	-0.826	17.826	C.2	1	UNK0	0.000	
20	 C13	9.332	-2.305	15.963	C.2	1	UNK0	0.000	
21	 C14	10.418	-1.893	16.872	C.2	1	UNK0	0.000	
22	 C15	3.820	4.437	22.659	C.2	1	UNK0	0.000	
23	  O4	4.488	4.649	23.656	O.co2	1	UNK0	0.000	
24	  O5	2.508	4.006	22.677	O.3	1	UNK0	0.000	
25	 C16	2.043	3.141	23.783	C.3	1	UNK0	0.000	
26	 C17	2.533	1.697	23.570	C.3	1	UNK0	0.000	
27	 C18	4.060	7.215	21.274	C.3	1	UNK0	0.000	
28	  N3	7.670	7.372	23.871	N.pl3	1	UNK0	0.000	
29	 C19	7.737	6.857	22.440	C.3	1	UNK0	0.000	
30	 C20	6.287	7.299	24.497	C.2	1	UNK0	0.000	
31	 C21	5.261	7.852	22.057	C.2	1	UNK0	0.000	
32	 C22	6.685	7.465	21.455	C.2	1	UNK0	0.000	
33	 C23	5.132	7.941	23.651	C.2	1	UNK0	0.000	
34	 C24	10.424	8.000	26.590	C.2	1	UNK0	0.000	
35	 C25	8.875	7.925	24.601	C.2	1	UNK0	0.000	
36	 C26	9.272	7.436	25.943	C.2	1	UNK0	0.000	
37	 C27	9.727	8.996	24.018	C.2	1	UNK0	0.000	
38	  N4	11.196	8.999	26.016	N.2	1	UNK0	0.000	
39	 C28	10.858	9.484	24.764	C.2	1	UNK0	0.000	
@<TRIPOS>BOND
1 1 2 1
2 1 7 1
3 1 22 1
4 2 3 1
5 3 6 1
6 3 8 1
7 4 5 2
8 4 6 1
9 4 7 1
10 7 27 1
11 8 9 2
12 8 10 2
13 8 12 1
14 11 12 2
15 11 16 1
16 12 15 1
17 13 14 1
18 13 16 1
19 13 19 2
20 14 15 2
21 16 18 2
22 17 21 1
23 18 20 1
24 19 21 1
25 20 21 2
26 22 23 2
27 22 24 1
28 24 25 1
29 25 26 1
30 27 31 1
31 28 29 1
32 28 30 1
33 28 35 1
34 29 32 1
35 30 33 2
36 31 32 2
37 31 33 1
38 34 36 1
39 34 38 2
40 35 36 2
41 35 37 1
42 37 39 2
43 38 39 1
@<TRIPOS>SUBSTRUCTURE
1	UNK0	1	GROUP	1 ****	UNK
