# created with PyMOL 2.5.0
@<TRIPOS>MOLECULE
MOL
41 45 1                 
SMALL
USER_CHARGES
@<TRIPOS>ATOM
1	  C1	2.908	3.886	21.729	C.3	1	UNK0	0.000	
2	  C2	3.129	2.948	22.944	C.2	1	UNK0	0.000	
3	  O1	3.760	3.467	23.863	O.2	1	UNK0	0.000	
4	  N1	2.259	1.912	23.210	N.pl3	1	UNK0	0.000	
5	  C3	2.776	0.600	23.752	C.3	1	UNK0	0.000	
6	  C4	2.990	-0.405	22.608	C.3	1	UNK0	0.000	
7	  S1	1.430	-0.679	21.729	S.o2	1	UNK0	0.000	
8	  O2	0.254	-1.181	22.644	O.2	1	UNK0	0.000	
9	  O3	1.621	-1.692	20.534	O.2	1	UNK0	0.000	
10	  C5	0.941	1.832	22.491	C.3	1	UNK0	0.000	
11	  C6	1.085	0.998	21.205	C.3	1	UNK0	0.000	
12	  N2	2.947	5.331	22.120	N.3	1	UNK0	0.000	
13	  C7	3.845	6.288	21.405	C.3	1	UNK0	0.000	
14	  N3	7.425	7.791	23.758	N.pl3	1	UNK0	0.000	
15	  C8	7.263	8.074	22.281	C.3	1	UNK0	0.000	
16	  C9	6.211	7.201	24.432	C.3	1	UNK0	0.000	
17	 C10	5.159	6.590	22.162	C.3	1	UNK0	0.000	
18	 C11	5.936	7.764	21.549	C.3	1	UNK0	0.000	
19	 C12	4.917	6.911	23.637	C.3	1	UNK0	0.000	
20	 C13	10.144	7.752	26.428	C.2	1	UNK0	0.000	
21	 C14	8.687	8.063	24.506	C.2	1	UNK0	0.000	
22	 C15	8.942	7.468	25.763	C.2	1	UNK0	0.000	
23	 C16	9.686	8.924	23.989	C.2	1	UNK0	0.000	
24	  N4	11.044	8.566	25.902	N.2	1	UNK0	0.000	
25	 C17	10.854	9.146	24.729	C.2	1	UNK0	0.000	
26	 C18	3.803	3.581	20.525	C.3	1	UNK0	0.000	
27	  N5	5.029	2.901	20.898	N.3	1	UNK0	0.000	
28	  S2	6.481	3.401	20.177	S.o2	1	UNK0	0.000	
29	  O4	7.558	3.781	21.268	O.2	1	UNK0	0.000	
30	  O5	6.154	4.684	19.305	O.2	1	UNK0	0.000	
31	 C19	8.354	1.642	19.289	C.2	1	UNK0	0.000	
32	 C20	7.036	2.075	19.164	C.2	1	UNK0	0.000	
33	 C21	7.912	-0.034	17.543	C.2	1	UNK0	0.000	
34	 C22	6.594	0.419	17.439	C.2	1	UNK0	0.000	
35	 C23	6.148	1.474	18.247	C.2	1	UNK0	0.000	
36	 C24	8.813	0.596	18.494	C.2	1	UNK0	0.000	
37	 C25	10.129	0.155	18.606	C.2	1	UNK0	0.000	
38	 C26	8.385	-1.075	16.756	C.2	1	UNK0	0.000	
39	 C27	10.580	-0.883	17.809	C.2	1	UNK0	0.000	
40	 C28	9.719	-1.491	16.895	C.2	1	UNK0	0.000	
41	 Cl1	10.321	-2.799	15.911	Cl	1	UNK0	0.000	
@<TRIPOS>BOND
1 1 2 1
2 1 12 1
3 1 26 1
4 2 3 2
5 2 4 1
6 4 5 1
7 4 10 1
8 5 6 1
9 6 7 1
10 7 8 2
11 7 9 2
12 7 11 1
13 10 11 1
14 12 13 1
15 13 17 1
16 14 15 1
17 14 16 1
18 14 21 1
19 15 18 1
20 16 19 1
21 17 18 1
22 17 19 1
23 20 22 1
24 20 24 2
25 21 22 2
26 21 23 1
27 23 25 2
28 24 25 1
29 26 27 1
30 27 28 1
31 28 29 2
32 28 30 2
33 28 32 1
34 31 32 2
35 31 36 1
36 32 35 1
37 33 34 1
38 33 36 1
39 33 38 2
40 34 35 2
41 36 37 2
42 37 39 1
43 38 40 1
44 39 40 2
45 40 41 1
@<TRIPOS>SUBSTRUCTURE
1	UNK0	1	GROUP	1 ****	UNK
