# created with PyMOL 2.5.0
@<TRIPOS>MOLECULE
MOL
70 74 1                 
SMALL
USER_CHARGES
@<TRIPOS>ATOM
1	 H28	7.753	6.847	25.689	 H	1	UNK0	0.000	
2	 H30	11.922	6.255	26.746	 H	1	UNK0	0.000	
3	 H27	7.316	8.072	23.525	 H	1	UNK0	0.000	
4	 H01	4.137	6.539	19.840	 H	1	UNK0	0.000	
5	 H13	10.690	-1.168	17.061	 H	1	UNK0	0.000	
6	 H31	9.519	6.316	29.049	 H	1	UNK0	0.000	
7	 H03	8.299	3.824	21.087	 H	1	UNK0	0.000	
8	 H26	11.309	9.909	23.769	 H	1	UNK0	0.000	
9	 H09	6.807	0.490	22.038	 H	1	UNK0	0.000	
10	 H04	4.784	9.131	20.626	 H	1	UNK0	0.000	
11	 H07	3.806	1.610	21.204	 H	1	UNK0	0.000	
12	 H06	5.470	9.213	18.986	 H	1	UNK0	0.000	
13	 H17	7.331	1.877	14.893	 H	1	UNK0	0.000	
14	 H05	6.226	10.125	20.315	 H	1	UNK0	0.000	
15	 H12	10.909	0.384	19.042	 H	1	UNK0	0.000	
16	 H11	8.930	1.698	19.898	 H	1	UNK0	0.000	
17	 H02	4.022	4.051	19.970	 H	1	UNK0	0.000	
18	 H10	6.261	1.799	22.642	 H	1	UNK0	0.000	
19	 H16	3.327	2.539	16.330	 H	1	UNK0	0.000	
20	 H15	2.791	4.021	17.163	 H	1	UNK0	0.000	
21	 H14	8.448	-1.403	15.903	 H	1	UNK0	0.000	
22	 H25	11.753	8.708	25.916	 H	1	UNK0	0.000	
23	 H20	6.925	4.107	15.129	 H	1	UNK0	0.000	
24	 H19	6.435	1.799	13.357	 H	1	UNK0	0.000	
25	 H18	5.563	1.671	14.904	 H	1	UNK0	0.000	
26	 H21	6.415	4.079	13.424	 H	1	UNK0	0.000	
27	 H24	8.830	10.750	22.291	 H	1	UNK0	0.000	
28	 H23	9.869	8.917	20.491	 H	1	UNK0	0.000	
29	 H22	8.403	9.961	20.220	 H	1	UNK0	0.000	
30	 H08	4.460	0.455	20.420	 H	1	UNK0	0.000	
31	 H29	11.311	5.792	28.319	 H	1	UNK0	0.000	
32	  N1	8.559	6.686	20.948	N.2	1	UNK0	0.000	
33	  C1	7.961	7.932	20.712	C.2	1	UNK0	0.000	
34	  N2	6.588	8.020	20.361	N.pl3	1	UNK0	0.000	
35	  C2	6.293	6.651	20.379	C.2	1	UNK0	0.000	
36	  C3	7.486	5.861	20.736	C.2	1	UNK0	0.000	
37	  C4	5.027	5.966	20.102	C.2	1	UNK0	0.000	
38	  C5	4.970	4.546	20.178	C.2	1	UNK0	0.000	
39	  C6	6.138	3.714	20.527	C.2	1	UNK0	0.000	
40	  C7	7.415	4.402	20.816	C.2	1	UNK0	0.000	
41	  C8	5.706	9.204	20.050	C.3	1	UNK0	0.000	
42	  C9	4.828	1.340	20.938	C.3	1	UNK0	0.000	
43	 C10	6.154	1.288	21.684	C.3	1	UNK0	0.000	
44	 C11	6.044	2.104	20.386	C.3	1	UNK0	0.000	
45	 C12	6.254	1.701	18.851	C.2	1	UNK0	0.000	
46	  N3	5.414	2.080	17.912	N.2	1	UNK0	0.000	
47	  N4	7.423	0.015	17.251	N.2	1	UNK0	0.000	
48	 C13	7.526	0.901	18.385	C.2	1	UNK0	0.000	
49	 C14	8.815	1.034	19.041	C.2	1	UNK0	0.000	
50	 C15	9.943	0.280	18.547	C.2	1	UNK0	0.000	
51	 C16	9.825	-0.607	17.414	C.2	1	UNK0	0.000	
52	 C17	8.558	-0.740	16.761	C.2	1	UNK0	0.000	
53	  O1	4.189	2.886	18.182	O.3	1	UNK0	0.000	
54	 C18	3.645	3.379	16.947	C.3	1	UNK0	0.000	
55	 C19	4.715	4.196	16.189	C.2	1	UNK0	0.000	
56	  O2	5.405	5.012	16.827	O.co2	1	UNK0	0.000	
57	  O3	4.871	3.996	14.817	O.3	1	UNK0	0.000	
58	 C20	6.401	2.143	14.390	C.3	1	UNK0	0.000	
59	 C21	6.223	3.673	14.417	C.3	1	UNK0	0.000	
60	 C22	8.868	9.187	20.831	C.3	1	UNK0	0.000	
61	  N5	8.981	9.754	22.220	N.pl3	1	UNK0	0.000	
62	 C23	9.804	7.660	26.014	C.2	1	UNK0	0.000	
63	 C24	10.798	8.561	25.412	C.2	1	UNK0	0.000	
64	 C25	10.547	9.250	24.185	C.2	1	UNK0	0.000	
65	 C26	9.278	9.077	23.483	C.2	1	UNK0	0.000	
66	 C27	8.268	8.203	24.040	C.2	1	UNK0	0.000	
67	 C28	8.522	7.504	25.282	C.2	1	UNK0	0.000	
68	  N6	11.194	6.287	27.447	N.pl3	1	UNK0	0.000	
69	  N7	9.250	6.855	28.239	N.2	1	UNK0	0.000	
70	 C29	10.085	6.980	27.220	C.2	1	UNK0	0.000	
@<TRIPOS>BOND
1 32 33 2
2 32 36 1
3 33 34 1
4 33 60 1
5 34 35 1
6 34 41 1
7 35 36 1
8 35 37 2
9 36 40 2
10 4 37 1
11 37 38 1
12 17 38 1
13 38 39 2
14 39 40 1
15 39 44 1
16 7 40 1
17 10 41 1
18 12 41 1
19 14 41 1
20 11 42 1
21 30 42 1
22 42 43 1
23 42 44 1
24 9 43 1
25 18 43 1
26 43 44 1
27 44 45 1
28 45 46 2
29 45 48 1
30 46 53 1
31 47 48 1
32 47 52 2
33 48 49 2
34 16 49 1
35 49 50 1
36 15 50 1
37 50 51 2
38 5 51 1
39 51 52 1
40 21 52 1
41 53 54 1
42 19 54 1
43 20 54 1
44 54 55 1
45 55 56 2
46 55 57 1
47 57 59 1
48 13 58 1
49 24 58 1
50 25 58 1
51 58 59 1
52 23 59 1
53 26 59 1
54 28 60 1
55 29 60 1
56 60 61 1
57 27 61 1
58 61 65 1
59 62 63 1
60 62 67 2
61 62 70 1
62 22 63 1
63 63 64 2
64 8 64 1
65 64 65 1
66 65 66 2
67 3 66 1
68 66 67 1
69 1 67 1
70 2 68 1
71 31 68 1
72 68 70 1
73 6 69 1
74 69 70 2
@<TRIPOS>SUBSTRUCTURE
1	UNK0	1	GROUP	1 ****	UNK
