# created with PyMOL 2.5.0
@<TRIPOS>MOLECULE
MOL
64 67 1                 
SMALL
USER_CHARGES
@<TRIPOS>ATOM
1	 H17	10.460	8.802	26.658	 H	1	UNK0	0.000	
2	 H02	4.335	3.663	21.982	 H	1	UNK0	0.000	
3	 H01	6.965	1.657	21.226	 H	1	UNK0	0.000	
4	 H07	8.858	9.404	22.445	 H	1	UNK0	0.000	
5	 H06	9.073	7.691	22.213	 H	1	UNK0	0.000	
6	 H05	8.443	6.187	20.775	 H	1	UNK0	0.000	
7	 H04	8.280	3.763	20.247	 H	1	UNK0	0.000	
8	 H03	4.495	6.089	22.498	 H	1	UNK0	0.000	
9	 H15	11.164	10.425	23.932	 H	1	UNK0	0.000	
10	 H10	6.192	7.630	24.841	 H	1	UNK0	0.000	
11	 H13	10.005	7.758	24.619	 H	1	UNK0	0.000	
12	 H12	8.691	6.891	25.721	 H	1	UNK0	0.000	
13	 H23	9.086	1.978	19.837	 H	1	UNK0	0.000	
14	 H11	8.036	8.420	26.084	 H	1	UNK0	0.000	
15	 H09	7.222	6.391	24.037	 H	1	UNK0	0.000	
16	 H08	6.572	9.162	23.173	 H	1	UNK0	0.000	
17	 H16	12.026	9.146	25.886	 H	1	UNK0	0.000	
18	 H19	3.765	0.226	20.136	 H	1	UNK0	0.000	
19	 H22	6.209	0.320	17.122	 H	1	UNK0	0.000	
20	 H21	5.434	1.661	18.695	 H	1	UNK0	0.000	
21	 H20	6.619	3.064	18.814	 H	1	UNK0	0.000	
22	 H31	8.400	-3.288	12.450	 H	1	UNK0	0.000	
23	 H26	10.704	-3.178	15.828	 H	1	UNK0	0.000	
24	 H25	11.364	-1.556	17.587	 H	1	UNK0	0.000	
25	 H24	10.774	0.314	19.065	 H	1	UNK0	0.000	
26	 H27	6.763	-1.540	15.795	 H	1	UNK0	0.000	
27	 H30	9.169	-1.869	13.125	 H	1	UNK0	0.000	
28	 H29	7.441	-4.585	15.613	 H	1	UNK0	0.000	
29	 H28	7.404	-4.853	13.885	 H	1	UNK0	0.000	
30	 H14	10.568	9.463	22.733	 H	1	UNK0	0.000	
31	 H18	11.404	7.479	25.930	 H	1	UNK0	0.000	
32	  C1	6.183	2.123	20.627	C.3	1	UNK0	0.000	
33	  C2	5.230	4.223	21.711	C.2	1	UNK0	0.000	
34	  C3	5.321	5.577	22.005	C.2	1	UNK0	0.000	
35	  C4	7.451	4.276	20.735	C.2	1	UNK0	0.000	
36	  C5	7.543	5.629	21.033	C.2	1	UNK0	0.000	
37	  C6	6.475	6.274	21.664	C.2	1	UNK0	0.000	
38	  C7	6.293	3.581	21.066	C.2	1	UNK0	0.000	
39	  O1	6.543	7.685	21.964	O.3	1	UNK0	0.000	
40	  N1	9.186	8.342	24.236	N.3	1	UNK0	0.000	
41	  C8	8.642	8.431	22.887	C.3	1	UNK0	0.000	
42	  C9	7.155	8.247	23.076	C.3	1	UNK0	0.000	
43	 C10	7.130	7.441	24.318	C.3	1	UNK0	0.000	
44	 C11	8.276	7.776	25.239	C.3	1	UNK0	0.000	
45	 C12	10.419	8.760	24.505	C.3	1	UNK0	0.000	
46	  N2	11.075	9.474	23.607	N.3	1	UNK0	0.000	
47	 C13	11.128	8.530	25.841	C.3	1	UNK0	0.000	
48	 C14	4.934	1.311	20.969	C.2	1	UNK0	0.000	
49	  O2	4.055	1.141	20.120	O.3	1	UNK0	0.000	
50	  O3	4.884	0.812	22.096	O.co2	1	UNK0	0.000	
51	 C15	6.362	2.048	19.116	C.3	1	UNK0	0.000	
52	 C16	7.201	0.302	17.571	C.2	1	UNK0	0.000	
53	 C17	7.497	1.186	18.590	C.2	1	UNK0	0.000	
54	 C18	8.812	1.228	19.095	C.2	1	UNK0	0.000	
55	 C19	9.768	0.309	18.646	C.2	1	UNK0	0.000	
56	 C20	9.420	-0.616	17.656	C.2	1	UNK0	0.000	
57	 C21	10.354	-1.536	17.177	C.2	1	UNK0	0.000	
58	 C22	9.987	-2.431	16.169	C.2	1	UNK0	0.000	
59	 C23	8.708	-2.386	15.586	C.2	1	UNK0	0.000	
60	 C24	7.795	-1.507	16.143	C.2	1	UNK0	0.000	
61	 C25	8.130	-0.599	17.111	C.2	1	UNK0	0.000	
62	 C26	8.348	-3.150	14.486	C.2	1	UNK0	0.000	
63	  N3	7.677	-4.288	14.677	N.pl3	1	UNK0	0.000	
64	  N4	8.665	-2.735	13.252	N.pl3	1	UNK0	0.000	
@<TRIPOS>BOND
1 3 32 1
2 32 38 1
3 32 48 1
4 32 51 1
5 2 33 1
6 33 34 1
7 33 38 2
8 8 34 1
9 34 37 2
10 7 35 1
11 35 36 2
12 35 38 1
13 6 36 1
14 36 37 1
15 37 39 1
16 39 42 1
17 40 41 1
18 40 44 1
19 40 45 1
20 4 41 1
21 5 41 1
22 41 42 1
23 16 42 1
24 42 43 1
25 10 43 1
26 15 43 1
27 43 44 1
28 12 44 1
29 14 44 1
30 11 45 1
31 45 46 1
32 45 47 1
33 9 46 1
34 30 46 1
35 1 47 1
36 17 47 1
37 31 47 1
38 48 49 1
39 48 50 2
40 18 49 1
41 20 51 1
42 21 51 1
43 51 53 1
44 19 52 1
45 52 53 2
46 52 61 1
47 53 54 1
48 13 54 1
49 54 55 2
50 25 55 1
51 55 56 1
52 56 57 2
53 56 61 1
54 24 57 1
55 57 58 1
56 23 58 1
57 58 59 2
58 59 60 1
59 59 62 1
60 26 60 1
61 60 61 2
62 62 63 1
63 62 64 2
64 28 63 1
65 29 63 1
66 22 64 1
67 27 64 1
@<TRIPOS>SUBSTRUCTURE
1	UNK0	1	GROUP	1 ****	UNK
