# created with PyMOL 2.5.0
@<TRIPOS>MOLECULE
MOL
39 43 1                 
SMALL
USER_CHARGES
@<TRIPOS>ATOM
1	  C1	5.107	5.507	20.468	C.3	1	UNK0	0.000	
2	  C2	5.117	6.934	21.128	C.3	1	UNK0	0.000	
3	  N1	5.671	6.925	22.520	N.3	1	UNK0	0.000	
4	  C3	4.500	4.563	22.803	C.2	1	UNK0	0.000	
5	  O1	4.040	3.737	23.591	O.2	1	UNK0	0.000	
6	  C4	5.127	5.862	23.424	C.3	1	UNK0	0.000	
7	  N2	4.484	4.423	21.361	N.pl3	1	UNK0	0.000	
8	  S1	6.082	8.437	23.248	S.o2	1	UNK0	0.000	
9	  O2	4.998	8.749	24.307	O.2	1	UNK0	0.000	
10	  O3	6.017	9.523	22.159	O.2	1	UNK0	0.000	
11	  C5	7.957	7.549	25.129	C.2	1	UNK0	0.000	
12	  C6	7.684	8.388	23.971	C.2	1	UNK0	0.000	
13	  C7	10.409	8.348	25.164	C.2	1	UNK0	0.000	
14	  C8	10.111	9.190	23.987	C.2	1	UNK0	0.000	
15	  C9	8.793	9.204	23.418	C.2	1	UNK0	0.000	
16	 C10	9.280	7.494	25.753	C.2	1	UNK0	0.000	
17	 Cl1	13.585	7.416	27.710	Cl	1	UNK0	0.000	
18	 C11	9.574	6.655	26.929	C.2	1	UNK0	0.000	
19	 C12	11.734	8.295	25.799	C.2	1	UNK0	0.000	
20	 C13	10.885	6.643	27.507	C.2	1	UNK0	0.000	
21	 C14	11.985	7.458	26.958	C.2	1	UNK0	0.000	
22	 C15	4.736	5.599	18.972	C.2	1	UNK0	0.000	
23	  O4	5.398	5.077	18.091	O.co2	1	UNK0	0.000	
24	  O5	3.604	6.358	18.749	O.3	1	UNK0	0.000	
25	 C16	2.281	5.697	18.715	C.3	1	UNK0	0.000	
26	 C17	2.165	4.806	17.464	C.3	1	UNK0	0.000	
27	 C18	3.872	3.185	20.738	C.3	1	UNK0	0.000	
28	  N3	7.295	1.415	18.513	N.pl3	1	UNK0	0.000	
29	 C19	7.488	2.119	19.848	C.3	1	UNK0	0.000	
30	 C20	6.036	1.825	17.768	C.2	1	UNK0	0.000	
31	 C21	4.812	2.067	20.167	C.2	1	UNK0	0.000	
32	 C22	6.265	2.067	20.822	C.2	1	UNK0	0.000	
33	 C23	4.708	1.751	18.600	C.2	1	UNK0	0.000	
34	 C24	10.525	-0.737	17.964	C.2	1	UNK0	0.000	
35	 C25	8.266	0.383	17.982	C.2	1	UNK0	0.000	
36	 C26	9.646	0.260	18.509	C.2	1	UNK0	0.000	
37	 C27	7.895	-0.563	16.895	C.2	1	UNK0	0.000	
38	  N4	10.145	-1.603	16.950	N.2	1	UNK0	0.000	
39	 C28	8.865	-1.520	16.429	C.2	1	UNK0	0.000	
@<TRIPOS>BOND
1 1 2 1
2 1 7 1
3 1 22 1
4 2 3 1
5 3 6 1
6 3 8 1
7 4 5 2
8 4 6 1
9 4 7 1
10 7 27 1
11 8 9 2
12 8 10 2
13 8 12 1
14 11 12 2
15 11 16 1
16 12 15 1
17 13 14 1
18 13 16 1
19 13 19 2
20 14 15 2
21 16 18 2
22 17 21 1
23 18 20 1
24 19 21 1
25 20 21 2
26 22 23 2
27 22 24 1
28 24 25 1
29 25 26 1
30 27 31 1
31 28 29 1
32 28 30 1
33 28 35 1
34 29 32 1
35 30 33 2
36 31 32 2
37 31 33 1
38 34 36 1
39 34 38 2
40 35 36 2
41 35 37 1
42 37 39 2
43 38 39 1
@<TRIPOS>SUBSTRUCTURE
1	UNK0	1	GROUP	1 ****	UNK
