# created with PyMOL 2.5.0
@<TRIPOS>MOLECULE
MOL
50 54 1                 
SMALL
USER_CHARGES
@<TRIPOS>ATOM
1	 H10	6.564	6.988	25.091	 H	1	UNK0	0.000	
2	 H11	5.673	1.736	22.165	 H	1	UNK0	0.000	
3	 H15	8.822	1.161	20.283	 H	1	UNK0	0.000	
4	 H16	5.883	-0.720	15.872	 H	1	UNK0	0.000	
5	 H17	8.104	-1.470	15.037	 H	1	UNK0	0.000	
6	 H04	7.440	4.335	19.793	 H	1	UNK0	0.000	
7	 H18	10.417	0.495	19.432	 H	1	UNK0	0.000	
8	 H19	11.215	-0.313	18.101	 H	1	UNK0	0.000	
9	 H05	8.368	4.174	21.248	 H	1	UNK0	0.000	
10	 H13	4.412	1.555	19.855	 H	1	UNK0	0.000	
11	 H03	7.217	6.566	20.554	 H	1	UNK0	0.000	
12	 H02	7.513	6.145	22.221	 H	1	UNK0	0.000	
13	 H14	4.554	0.396	17.650	 H	1	UNK0	0.000	
14	 H01	4.895	6.091	20.683	 H	1	UNK0	0.000	
15	 H08	12.311	8.739	26.137	 H	1	UNK0	0.000	
16	 H07	11.279	9.730	24.072	 H	1	UNK0	0.000	
17	 H06	4.021	6.591	22.636	 H	1	UNK0	0.000	
18	 H09	10.955	7.158	27.541	 H	1	UNK0	0.000	
19	 H12	7.456	1.935	22.129	 H	1	UNK0	0.000	
20	  N1	6.343	3.592	21.480	N.pl3	1	UNK0	0.000	
21	  C1	5.251	4.282	21.878	C.2	1	UNK0	0.000	
22	  C2	5.465	5.749	21.547	C.3	1	UNK0	0.000	
23	  C3	6.980	5.831	21.324	C.3	1	UNK0	0.000	
24	  C4	7.378	4.438	20.876	C.3	1	UNK0	0.000	
25	  O1	4.245	3.831	22.412	O.2	1	UNK0	0.000	
26	  N2	5.031	6.592	22.638	N.3	1	UNK0	0.000	
27	  S1	5.548	8.248	22.636	S.o2	1	UNK0	0.000	
28	  O2	4.488	8.847	23.416	O.2	1	UNK0	0.000	
29	  O3	5.695	8.564	21.239	O.2	1	UNK0	0.000	
30	  C5	9.393	8.743	24.323	C.2	1	UNK0	0.000	
31	  C6	10.696	9.048	24.691	C.2	1	UNK0	0.000	
32	  C7	11.288	8.489	25.857	C.2	1	UNK0	0.000	
33	  C8	10.517	7.600	26.646	C.2	1	UNK0	0.000	
34	  N3	9.233	7.290	26.302	N.2	1	UNK0	0.000	
35	  C9	8.658	7.834	25.167	C.2	1	UNK0	0.000	
36	 C10	7.312	7.631	24.628	C.2	1	UNK0	0.000	
37	 C11	7.095	8.359	23.448	C.2	1	UNK0	0.000	
38	  S2	8.480	9.271	23.000	S.3	1	UNK0	0.000	
39	 C12	6.520	2.136	21.607	C.3	1	UNK0	0.000	
40	 C13	5.382	1.227	19.482	C.2	1	UNK0	0.000	
41	 C14	5.462	0.567	18.229	C.2	1	UNK0	0.000	
42	 C15	6.726	0.124	17.716	C.2	1	UNK0	0.000	
43	 C16	7.960	0.340	18.466	C.2	1	UNK0	0.000	
44	 C17	7.909	0.994	19.713	C.2	1	UNK0	0.000	
45	 C18	6.557	1.467	20.261	C.2	1	UNK0	0.000	
46	 C19	6.784	-0.541	16.458	C.2	1	UNK0	0.000	
47	 C20	8.048	-0.960	15.999	C.2	1	UNK0	0.000	
48	  N4	9.215	-0.761	16.700	N.2	1	UNK0	0.000	
49	 C21	9.186	-0.120	17.918	C.2	1	UNK0	0.000	
50	  N5	10.371	0.033	18.535	N.pl3	1	UNK0	0.000	
@<TRIPOS>BOND
1 20 21 1
2 20 24 1
3 20 39 1
4 21 22 1
5 21 25 2
6 14 22 1
7 22 23 1
8 22 26 1
9 11 23 1
10 12 23 1
11 23 24 1
12 6 24 1
13 9 24 1
14 17 26 1
15 26 27 1
16 27 28 2
17 27 29 2
18 27 37 1
19 30 31 1
20 30 35 2
21 30 38 1
22 16 31 1
23 31 32 2
24 15 32 1
25 32 33 1
26 18 33 1
27 33 34 2
28 34 35 1
29 35 36 1
30 1 36 1
31 36 37 2
32 37 38 1
33 2 39 1
34 19 39 1
35 39 45 1
36 10 40 1
37 40 41 2
38 40 45 1
39 13 41 1
40 41 42 1
41 42 43 1
42 42 46 2
43 43 44 1
44 43 49 2
45 3 44 1
46 44 45 2
47 4 46 1
48 46 47 1
49 5 47 1
50 47 48 2
51 48 49 1
52 49 50 1
53 7 50 1
54 8 50 1
@<TRIPOS>SUBSTRUCTURE
1	UNK0	1	GROUP	1 ****	UNK
