# created with PyMOL 2.5.0
@<TRIPOS>MOLECULE
MOL
39 43 1                 
SMALL
USER_CHARGES
@<TRIPOS>ATOM
1	  N1	7.581	3.662	20.137	N.2	1	UNK0	0.000	
2	  C1	6.606	2.704	20.443	C.2	1	UNK0	0.000	
3	  N2	5.592	2.984	21.398	N.pl3	1	UNK0	0.000	
4	  C2	5.989	4.286	21.728	C.2	1	UNK0	0.000	
5	  C3	7.184	4.681	20.961	C.2	1	UNK0	0.000	
6	  C4	5.395	5.228	22.682	C.2	1	UNK0	0.000	
7	  C5	5.985	6.510	22.855	C.2	1	UNK0	0.000	
8	  C6	7.184	6.949	22.114	C.2	1	UNK0	0.000	
9	  C7	7.781	6.005	21.144	C.2	1	UNK0	0.000	
10	  C8	4.444	2.152	21.916	C.3	1	UNK0	0.000	
11	  C9	7.535	9.654	21.824	C.3	1	UNK0	0.000	
12	 C10	8.844	8.962	21.470	C.3	1	UNK0	0.000	
13	 C11	7.913	8.336	22.521	C.3	1	UNK0	0.000	
14	 C12	7.803	8.538	24.106	C.2	1	UNK0	0.000	
15	  N3	6.683	8.921	24.680	N.2	1	UNK0	0.000	
16	  N4	8.812	7.297	26.158	N.2	1	UNK0	0.000	
17	 C13	9.012	8.206	25.056	C.2	1	UNK0	0.000	
18	 C14	10.338	8.764	24.855	C.2	1	UNK0	0.000	
19	 C15	11.405	8.401	25.757	C.2	1	UNK0	0.000	
20	 C16	11.189	7.494	26.860	C.2	1	UNK0	0.000	
21	 C17	9.885	6.937	27.062	C.2	1	UNK0	0.000	
22	  O1	5.434	9.224	23.924	O.3	1	UNK0	0.000	
23	 C18	4.299	9.144	24.803	C.3	1	UNK0	0.000	
24	 C19	3.025	8.824	23.990	C.2	1	UNK0	0.000	
25	  O2	3.076	8.894	22.749	O.co2	1	UNK0	0.000	
26	  O3	1.860	8.471	24.672	O.3	1	UNK0	0.000	
27	 C20	1.892	6.033	24.558	C.3	1	UNK0	0.000	
28	 C21	1.984	7.271	25.470	C.3	1	UNK0	0.000	
29	 C22	6.703	1.335	19.715	C.3	1	UNK0	0.000	
30	  N5	7.570	1.336	18.485	N.pl3	1	UNK0	0.000	
31	 C23	10.434	-1.715	17.093	C.2	1	UNK0	0.000	
32	 C24	9.090	-1.611	16.507	C.2	1	UNK0	0.000	
33	 C25	8.150	-0.626	16.944	C.2	1	UNK0	0.000	
34	 C26	8.502	0.319	18.000	C.2	1	UNK0	0.000	
35	 C27	9.816	0.256	18.603	C.2	1	UNK0	0.000	
36	 C28	10.768	-0.741	18.163	C.2	1	UNK0	0.000	
37	  N6	12.659	-2.589	16.698	N.pl3	1	UNK0	0.000	
38	  N7	11.000	-3.837	16.050	N.2	1	UNK0	0.000	
39	 C29	11.337	-2.708	16.653	C.2	1	UNK0	0.000	
@<TRIPOS>BOND
1 1 2 2
2 1 5 1
3 2 3 1
4 2 29 1
5 3 4 1
6 3 10 1
7 4 5 1
8 4 6 2
9 5 9 2
10 6 7 1
11 7 8 2
12 8 9 1
13 8 13 1
14 11 12 1
15 11 13 1
16 12 13 1
17 13 14 1
18 14 15 2
19 14 17 1
20 15 22 1
21 16 17 1
22 16 21 2
23 17 18 2
24 18 19 1
25 19 20 2
26 20 21 1
27 22 23 1
28 23 24 1
29 24 25 2
30 24 26 1
31 26 28 1
32 27 28 1
33 29 30 1
34 30 34 1
35 31 32 1
36 31 36 2
37 31 39 1
38 32 33 2
39 33 34 1
40 34 35 2
41 35 36 1
42 37 39 1
43 38 39 2
@<TRIPOS>SUBSTRUCTURE
1	UNK0	1	GROUP	1 ****	UNK
