# created with PyMOL 2.5.0
@<TRIPOS>MOLECULE
MOL
67 72 1                 
SMALL
USER_CHARGES
@<TRIPOS>ATOM
1	 H07	8.165	1.718	20.561	 H	1	UNK0	0.000	
2	 H27	-0.398	5.694	21.288	 H	1	UNK0	0.000	
3	 H28	1.077	6.282	22.090	 H	1	UNK0	0.000	
4	 H12	6.575	3.544	21.276	 H	1	UNK0	0.000	
5	 H09	4.999	0.770	18.338	 H	1	UNK0	0.000	
6	 H25	2.721	5.711	18.854	 H	1	UNK0	0.000	
7	 H02	2.559	5.127	24.105	 H	1	UNK0	0.000	
8	 H26	2.685	6.924	20.208	 H	1	UNK0	0.000	
9	 H08	6.503	1.133	20.873	 H	1	UNK0	0.000	
10	 H03	5.539	5.804	21.845	 H	1	UNK0	0.000	
11	 H06	4.420	1.895	20.990	 H	1	UNK0	0.000	
12	 H05	3.244	2.330	19.792	 H	1	UNK0	0.000	
13	 H16	7.058	-0.705	16.632	 H	1	UNK0	0.000	
14	 H04	4.598	7.141	21.112	 H	1	UNK0	0.000	
15	 H11	7.327	3.797	19.647	 H	1	UNK0	0.000	
16	 H10	5.991	1.206	16.905	 H	1	UNK0	0.000	
17	 H01	4.381	4.870	24.195	 H	1	UNK0	0.000	
18	 H29	0.443	7.131	20.659	 H	1	UNK0	0.000	
19	 H15	9.019	-1.990	15.763	 H	1	UNK0	0.000	
20	 H14	6.013	3.544	17.564	 H	1	UNK0	0.000	
21	 H13	4.303	2.950	17.658	 H	1	UNK0	0.000	
22	 H24	10.458	7.212	27.101	 H	1	UNK0	0.000	
23	 H19	5.793	7.136	25.587	 H	1	UNK0	0.000	
24	 H18	11.653	-0.215	18.602	 H	1	UNK0	0.000	
25	 H17	9.800	1.150	19.601	 H	1	UNK0	0.000	
26	 H20	8.304	9.721	21.891	 H	1	UNK0	0.000	
27	 H23	10.544	9.391	23.254	 H	1	UNK0	0.000	
28	 H22	7.985	6.814	26.918	 H	1	UNK0	0.000	
29	 H21	5.816	9.335	21.736	 H	1	UNK0	0.000	
30	  C1	3.401	3.694	22.719	C.2	1	UNK0	0.000	
31	  O1	3.180	2.633	23.299	O.2	1	UNK0	0.000	
32	  C2	3.501	5.011	23.568	C.3	1	UNK0	0.000	
33	  N1	3.757	6.283	22.839	N.3	1	UNK0	0.000	
34	  C3	3.869	5.128	20.590	C.3	1	UNK0	0.000	
35	  C4	4.542	6.164	21.593	C.3	1	UNK0	0.000	
36	  N2	3.589	3.828	21.298	N.pl3	1	UNK0	0.000	
37	  C5	4.042	2.738	20.412	C.3	1	UNK0	0.000	
38	  N3	7.075	1.154	18.782	N.pl3	1	UNK0	0.000	
39	  C6	7.130	1.737	20.218	C.3	1	UNK0	0.000	
40	  C7	5.787	1.418	17.954	C.3	1	UNK0	0.000	
41	  C8	5.186	3.407	19.580	C.3	1	UNK0	0.000	
42	  O2	4.806	4.816	19.562	O.3	1	UNK0	0.000	
43	  C9	6.624	3.211	20.239	C.3	1	UNK0	0.000	
44	 C10	5.304	2.904	18.087	C.3	1	UNK0	0.000	
45	 C11	9.166	-1.302	16.596	C.2	1	UNK0	0.000	
46	 C12	8.221	0.365	18.219	C.2	1	UNK0	0.000	
47	 C13	8.040	-0.573	17.086	C.2	1	UNK0	0.000	
48	 C14	9.594	0.478	18.768	C.2	1	UNK0	0.000	
49	  N4	10.437	-1.173	17.132	N.2	1	UNK0	0.000	
50	 C15	10.647	-0.305	18.191	C.2	1	UNK0	0.000	
51	  S1	3.921	7.813	23.526	S.o2	1	UNK0	0.000	
52	  O3	3.328	7.716	24.961	O.2	1	UNK0	0.000	
53	  O4	3.186	8.866	22.677	O.2	1	UNK0	0.000	
54	 C16	6.336	7.682	24.816	C.2	1	UNK0	0.000	
55	 C17	5.608	8.196	23.667	C.2	1	UNK0	0.000	
56	 C18	8.546	8.662	23.844	C.2	1	UNK0	0.000	
57	 C19	7.789	9.175	22.681	C.2	1	UNK0	0.000	
58	 C20	6.363	8.950	22.597	C.2	1	UNK0	0.000	
59	 C21	7.769	7.877	24.963	C.2	1	UNK0	0.000	
60	 Cl1	12.374	8.571	25.389	Cl	1	UNK0	0.000	
61	 C22	8.509	7.363	26.135	C.2	1	UNK0	0.000	
62	 C23	9.976	8.852	24.013	C.2	1	UNK0	0.000	
63	 C24	9.917	7.591	26.234	C.2	1	UNK0	0.000	
64	 C25	10.658	8.327	25.190	C.2	1	UNK0	0.000	
65	 C26	2.637	5.872	19.928	C.3	1	UNK0	0.000	
66	  O5	1.334	5.357	20.320	O.3	1	UNK0	0.000	
67	 C27	0.576	6.157	21.130	C.3	1	UNK0	0.000	
@<TRIPOS>BOND
1 30 31 2
2 30 32 1
3 30 36 1
4 7 32 1
5 17 32 1
6 32 33 1
7 33 35 1
8 33 51 1
9 34 35 1
10 34 36 1
11 34 42 1
12 34 65 1
13 10 35 1
14 14 35 1
15 36 37 1
16 11 37 1
17 12 37 1
18 37 41 1
19 38 39 1
20 38 40 1
21 38 46 1
22 1 39 1
23 9 39 1
24 39 43 1
25 5 40 1
26 16 40 1
27 40 44 1
28 41 42 1
29 41 43 1
30 41 44 1
31 4 43 1
32 15 43 1
33 20 44 1
34 21 44 1
35 19 45 1
36 45 47 2
37 45 49 1
38 46 47 1
39 46 48 2
40 13 47 1
41 25 48 1
42 48 50 1
43 49 50 2
44 24 50 1
45 51 52 2
46 51 53 2
47 51 55 1
48 23 54 1
49 54 55 2
50 54 59 1
51 55 58 1
52 56 57 1
53 56 59 1
54 56 62 2
55 26 57 1
56 57 58 2
57 29 58 1
58 59 61 2
59 60 64 1
60 28 61 1
61 61 63 1
62 27 62 1
63 62 64 1
64 22 63 1
65 63 64 2
66 6 65 1
67 8 65 1
68 65 66 1
69 66 67 1
70 2 67 1
71 3 67 1
72 18 67 1
@<TRIPOS>SUBSTRUCTURE
1	UNK0	1	GROUP	1 ****	UNK
