# created with PyMOL 2.5.0
@<TRIPOS>MOLECULE
MOL
64 66 1                 
SMALL
USER_CHARGES
@<TRIPOS>ATOM
1	 H16	4.885	8.522	22.050	 H	1	UNK0	0.000	
2	 H15	3.265	8.090	22.647	 H	1	UNK0	0.000	
3	 H07	10.077	1.136	19.641	 H	1	UNK0	0.000	
4	 H05	8.695	3.345	19.450	 H	1	UNK0	0.000	
5	 H04	5.853	0.175	20.198	 H	1	UNK0	0.000	
6	 H03	4.593	1.662	21.755	 H	1	UNK0	0.000	
7	 H01	6.087	5.912	21.579	 H	1	UNK0	0.000	
8	 H14	4.005	6.237	23.744	 H	1	UNK0	0.000	
9	 H13	6.419	-1.143	14.063	 H	1	UNK0	0.000	
10	 H08	11.359	-0.332	18.089	 H	1	UNK0	0.000	
11	 H11	8.194	-2.094	15.125	 H	1	UNK0	0.000	
12	 H10	6.799	-2.297	16.233	 H	1	UNK0	0.000	
13	 H21	2.851	9.728	25.130	 H	1	UNK0	0.000	
14	 H09	10.168	-1.605	16.281	 H	1	UNK0	0.000	
15	 H06	6.397	0.113	17.622	 H	1	UNK0	0.000	
16	 H02	7.457	4.842	20.996	 H	1	UNK0	0.000	
17	 H30	11.687	6.033	28.342	 H	1	UNK0	0.000	
18	 H17	3.945	7.249	21.234	 H	1	UNK0	0.000	
19	 H20	3.482	9.540	26.784	 H	1	UNK0	0.000	
20	 H19	2.112	8.546	26.236	 H	1	UNK0	0.000	
21	 H18	6.232	6.474	24.780	 H	1	UNK0	0.000	
22	 H29	12.182	6.605	26.765	 H	1	UNK0	0.000	
23	 H24	8.025	6.656	25.722	 H	1	UNK0	0.000	
24	 H23	7.367	7.044	22.545	 H	1	UNK0	0.000	
25	 H22	6.825	8.761	22.939	 H	1	UNK0	0.000	
26	 H25	11.751	8.862	25.999	 H	1	UNK0	0.000	
27	 H28	8.371	7.212	28.074	 H	1	UNK0	0.000	
28	 H27	9.099	9.521	22.650	 H	1	UNK0	0.000	
29	 H26	11.216	10.030	23.859	 H	1	UNK0	0.000	
30	 H12	7.198	0.154	14.719	 H	1	UNK0	0.000	
31	  C1	5.183	4.273	22.434	C.2	1	UNK0	0.000	
32	  N1	5.435	5.619	22.292	N.pl3	1	UNK0	0.000	
33	  O1	4.396	3.847	23.287	O.2	1	UNK0	0.000	
34	  C2	7.098	3.826	20.830	C.2	1	UNK0	0.000	
35	  C3	5.924	3.377	21.503	C.2	1	UNK0	0.000	
36	  C4	5.487	2.038	21.257	C.2	1	UNK0	0.000	
37	  C5	6.206	1.192	20.369	C.2	1	UNK0	0.000	
38	  C6	7.372	1.643	19.701	C.2	1	UNK0	0.000	
39	  C7	7.801	2.973	19.950	C.2	1	UNK0	0.000	
40	  C8	7.477	0.020	17.729	C.2	1	UNK0	0.000	
41	  C9	8.139	0.742	18.753	C.2	1	UNK0	0.000	
42	 C10	9.545	0.593	18.860	C.2	1	UNK0	0.000	
43	 C11	10.278	-0.242	17.980	C.2	1	UNK0	0.000	
44	 C12	9.609	-0.960	16.960	C.2	1	UNK0	0.000	
45	 C13	8.200	-0.828	16.832	C.2	1	UNK0	0.000	
46	 C14	7.469	-1.581	15.757	C.3	1	UNK0	0.000	
47	  N2	6.665	-0.678	14.925	N.3	1	UNK0	0.000	
48	 C15	4.802	6.649	23.125	C.3	1	UNK0	0.000	
49	 C16	4.179	7.704	22.196	C.3	1	UNK0	0.000	
50	 C17	5.879	7.253	24.104	C.3	1	UNK0	0.000	
51	 C18	5.220	8.398	24.921	C.2	1	UNK0	0.000	
52	  O2	5.650	9.514	25.009	O.co2	1	UNK0	0.000	
53	  O3	3.960	8.011	25.470	O.3	1	UNK0	0.000	
54	 C19	3.047	9.017	25.933	C.3	1	UNK0	0.000	
55	 C20	7.130	7.783	23.310	C.3	1	UNK0	0.000	
56	 C21	8.719	7.391	25.314	C.2	1	UNK0	0.000	
57	 C22	9.922	7.675	26.006	C.2	1	UNK0	0.000	
58	 C23	10.824	8.635	25.472	C.2	1	UNK0	0.000	
59	 C24	10.522	9.295	24.266	C.2	1	UNK0	0.000	
60	 C25	9.324	9.005	23.583	C.2	1	UNK0	0.000	
61	 C26	8.406	8.051	24.094	C.2	1	UNK0	0.000	
62	 C27	10.241	6.993	27.266	C.2	1	UNK0	0.000	
63	  N3	9.301	6.849	28.222	N.2	1	UNK0	0.000	
64	  N4	11.471	6.503	27.475	N.pl3	1	UNK0	0.000	
@<TRIPOS>BOND
1 31 32 1
2 31 33 2
3 31 35 1
4 7 32 1
5 32 48 1
6 16 34 1
7 34 35 1
8 34 39 2
9 35 36 2
10 6 36 1
11 36 37 1
12 5 37 1
13 37 38 2
14 38 39 1
15 38 41 1
16 4 39 1
17 15 40 1
18 40 41 1
19 40 45 2
20 41 42 2
21 3 42 1
22 42 43 1
23 10 43 1
24 43 44 2
25 14 44 1
26 44 45 1
27 45 46 1
28 11 46 1
29 12 46 1
30 46 47 1
31 9 47 1
32 30 47 1
33 8 48 1
34 48 49 1
35 48 50 1
36 1 49 1
37 2 49 1
38 18 49 1
39 21 50 1
40 50 51 1
41 50 55 1
42 51 52 2
43 51 53 1
44 53 54 1
45 13 54 1
46 19 54 1
47 20 54 1
48 24 55 1
49 25 55 1
50 55 61 1
51 23 56 1
52 56 57 1
53 56 61 2
54 57 58 2
55 57 62 1
56 26 58 1
57 58 59 1
58 29 59 1
59 59 60 2
60 28 60 1
61 60 61 1
62 62 63 2
63 62 64 1
64 27 63 1
65 17 64 1
66 22 64 1
@<TRIPOS>SUBSTRUCTURE
1	UNK0	1	GROUP	1 ****	UNK
