# created with PyMOL 2.5.0
@<TRIPOS>MOLECULE
MOL
61 64 1                 
SMALL
USER_CHARGES
@<TRIPOS>ATOM
1	 H12	7.136	6.627	26.037	 H	1	UNK0	0.000	
2	 H14	8.888	7.862	26.433	 H	1	UNK0	0.000	
3	 H11	9.997	9.735	20.878	 H	1	UNK0	0.000	
4	 H22	4.497	0.197	13.444	 H	1	UNK0	0.000	
5	 H01	4.210	5.278	21.177	 H	1	UNK0	0.000	
6	 H15	10.097	0.925	19.799	 H	1	UNK0	0.000	
7	 H20	5.517	2.352	14.161	 H	1	UNK0	0.000	
8	 H17	9.131	-0.933	16.025	 H	1	UNK0	0.000	
9	 H02	1.658	3.792	21.150	 H	1	UNK0	0.000	
10	 H23	4.517	-2.444	14.621	 H	1	UNK0	0.000	
11	 H06	4.373	3.675	23.782	 H	1	UNK0	0.000	
12	 H03	2.801	3.079	19.986	 H	1	UNK0	0.000	
13	 H10	9.787	9.408	23.338	 H	1	UNK0	0.000	
14	 H19	7.259	2.028	14.321	 H	1	UNK0	0.000	
15	 H05	2.795	4.547	23.422	 H	1	UNK0	0.000	
16	 H04	2.141	2.087	21.309	 H	1	UNK0	0.000	
17	 H21	6.308	2.500	15.749	 H	1	UNK0	0.000	
18	 H16	10.799	-0.419	17.808	 H	1	UNK0	0.000	
19	 H09	6.938	6.216	22.645	 H	1	UNK0	0.000	
20	 H08	8.294	9.169	18.864	 H	1	UNK0	0.000	
21	 H07	3.199	0.947	23.210	 H	1	UNK0	0.000	
22	 H18	6.080	1.194	18.225	 H	1	UNK0	0.000	
23	 H13	6.545	6.351	24.414	 H	1	UNK0	0.000	
24	  C1	5.247	4.997	20.991	C.3	1	UNK0	0.000	
25	  F1	4.481	6.033	21.203	 F	1	UNK0	0.000	
26	  C2	4.821	3.688	21.319	C.2	1	UNK0	0.000	
27	  C3	5.705	2.608	21.051	C.2	1	UNK0	0.000	
28	  F2	5.376	1.390	21.319	 F	1	UNK0	0.000	
29	  C4	6.959	2.859	20.480	C.2	1	UNK0	0.000	
30	  N1	7.307	4.104	20.202	N.2	1	UNK0	0.000	
31	  C5	6.530	5.175	20.430	C.2	1	UNK0	0.000	
32	  N2	3.584	3.478	21.874	N.pl3	1	UNK0	0.000	
33	  C6	2.478	3.085	21.028	C.3	1	UNK0	0.000	
34	  C7	3.387	3.638	23.318	C.3	1	UNK0	0.000	
35	  C8	2.589	2.569	24.028	C.2	1	UNK0	0.000	
36	  O1	1.458	2.791	24.562	O.co2	1	UNK0	0.000	
37	  O2	3.078	1.292	24.097	O.3	1	UNK0	0.000	
38	  O3	6.985	6.379	20.109	O.3	1	UNK0	0.000	
39	  O4	8.697	8.334	19.113	O.3	1	UNK0	0.000	
40	  C9	7.714	7.179	20.886	C.2	1	UNK0	0.000	
41	 C10	7.606	6.989	22.266	C.2	1	UNK0	0.000	
42	 C11	8.342	7.777	23.183	C.2	1	UNK0	0.000	
43	 C12	9.211	8.781	22.657	C.2	1	UNK0	0.000	
44	 C13	9.328	8.968	21.270	C.2	1	UNK0	0.000	
45	 C14	8.580	8.161	20.379	C.2	1	UNK0	0.000	
46	 C15	8.197	7.559	24.549	C.2	1	UNK0	0.000	
47	  N3	7.210	6.780	25.041	N.pl3	1	UNK0	0.000	
48	  N4	9.027	8.061	25.452	N.2	1	UNK0	0.000	
49	  O5	7.754	1.853	20.223	O.3	1	UNK0	0.000	
50	 C16	8.032	1.143	19.135	C.2	1	UNK0	0.000	
51	 C17	9.374	0.688	19.018	C.2	1	UNK0	0.000	
52	 C18	9.772	-0.065	17.898	C.2	1	UNK0	0.000	
53	 C19	8.830	-0.356	16.899	C.2	1	UNK0	0.000	
54	 C20	7.483	0.096	17.015	C.2	1	UNK0	0.000	
55	 C21	7.108	0.842	18.133	C.2	1	UNK0	0.000	
56	 C22	6.540	-0.205	16.036	C.2	1	UNK0	0.000	
57	  N5	6.012	0.577	15.078	N.pl3	1	UNK0	0.000	
58	 C23	6.290	1.943	14.812	C.3	1	UNK0	0.000	
59	  N6	6.025	-1.442	15.959	N.2	1	UNK0	0.000	
60	 C24	5.083	-0.156	14.293	C.2	1	UNK0	0.000	
61	 C25	5.092	-1.567	14.917	C.2	1	UNK0	0.000	
@<TRIPOS>BOND
1 5 24 1
2 24 25 1
3 24 26 1
4 24 31 1
5 26 27 2
6 26 32 1
7 27 28 1
8 27 29 1
9 29 30 2
10 29 49 1
11 30 31 2
12 31 38 1
13 32 33 1
14 32 34 1
15 9 33 1
16 12 33 1
17 16 33 1
18 11 34 1
19 15 34 1
20 34 35 1
21 35 36 2
22 35 37 1
23 21 37 1
24 38 40 1
25 20 39 1
26 39 45 1
27 40 41 1
28 40 45 2
29 19 41 1
30 41 42 2
31 42 43 1
32 42 46 1
33 13 43 1
34 43 44 2
35 3 44 1
36 44 45 1
37 46 47 1
38 46 48 2
39 1 47 1
40 23 47 1
41 2 48 1
42 49 50 1
43 50 51 1
44 50 55 2
45 6 51 1
46 51 52 2
47 18 52 1
48 52 53 1
49 8 53 1
50 53 54 2
51 54 55 1
52 54 56 1
53 22 55 1
54 56 57 1
55 56 59 2
56 57 58 1
57 57 60 1
58 7 58 1
59 14 58 1
60 17 58 1
61 59 61 1
62 4 60 1
63 60 61 2
64 10 61 1
@<TRIPOS>SUBSTRUCTURE
1	UNK0	1	GROUP	1 ****	UNK
