# created with PyMOL 2.5.0
@<TRIPOS>MOLECULE
MOL
34 36 1                 
SMALL
USER_CHARGES
@<TRIPOS>ATOM
1	  C1	5.137	4.159	22.470	C.2	1	UNK0	0.000	
2	  N1	5.336	5.510	22.301	N.pl3	1	UNK0	0.000	
3	  O1	4.399	3.718	23.359	O.2	1	UNK0	0.000	
4	  C2	7.019	3.745	20.820	C.2	1	UNK0	0.000	
5	  C3	5.872	3.275	21.522	C.2	1	UNK0	0.000	
6	  C4	5.453	1.928	21.288	C.2	1	UNK0	0.000	
7	  C5	6.166	1.094	20.384	C.2	1	UNK0	0.000	
8	  C6	7.306	1.565	19.687	C.2	1	UNK0	0.000	
9	  C7	7.716	2.904	19.923	C.2	1	UNK0	0.000	
10	  C8	9.432	0.363	18.931	C.2	1	UNK0	0.000	
11	  C9	8.066	0.677	18.721	C.2	1	UNK0	0.000	
12	 C10	7.435	0.131	17.576	C.2	1	UNK0	0.000	
13	 C11	8.129	-0.704	16.664	C.2	1	UNK0	0.000	
14	 C12	9.493	-1.012	16.882	C.2	1	UNK0	0.000	
15	 C13	10.150	-0.476	18.023	C.2	1	UNK0	0.000	
16	 C14	11.598	-0.789	18.273	C.3	1	UNK0	0.000	
17	  N2	12.033	-1.957	17.499	N.3	1	UNK0	0.000	
18	 C15	4.701	6.530	23.145	C.3	1	UNK0	0.000	
19	 C16	4.037	7.570	22.228	C.3	1	UNK0	0.000	
20	 C17	5.788	7.158	24.098	C.3	1	UNK0	0.000	
21	 C18	5.154	8.364	24.845	C.2	1	UNK0	0.000	
22	  O2	5.462	9.511	24.682	O.co2	1	UNK0	0.000	
23	  O3	4.061	7.970	25.674	O.3	1	UNK0	0.000	
24	 C19	2.948	8.858	25.855	C.3	1	UNK0	0.000	
25	 C20	7.057	7.609	23.287	C.3	1	UNK0	0.000	
26	 C21	8.658	7.297	25.296	C.2	1	UNK0	0.000	
27	 C22	9.848	7.635	25.988	C.2	1	UNK0	0.000	
28	 C23	10.712	8.625	25.447	C.2	1	UNK0	0.000	
29	 C24	10.386	9.261	24.234	C.2	1	UNK0	0.000	
30	 C25	9.202	8.919	23.553	C.2	1	UNK0	0.000	
31	 C26	8.321	7.934	24.071	C.2	1	UNK0	0.000	
32	 C27	10.190	6.977	27.254	C.2	1	UNK0	0.000	
33	  N3	9.258	6.810	28.212	N.2	1	UNK0	0.000	
34	  N4	11.437	6.531	27.466	N.pl3	1	UNK0	0.000	
@<TRIPOS>BOND
1 1 2 1
2 1 3 2
3 1 5 1
4 2 18 1
5 4 5 1
6 4 9 2
7 5 6 2
8 6 7 1
9 7 8 2
10 8 9 1
11 8 11 1
12 10 11 1
13 10 15 2
14 11 12 2
15 12 13 1
16 13 14 2
17 14 15 1
18 15 16 1
19 16 17 1
20 18 19 1
21 18 20 1
22 20 21 1
23 20 25 1
24 21 22 2
25 21 23 1
26 23 24 1
27 25 31 1
28 26 27 1
29 26 31 2
30 27 28 2
31 27 32 1
32 28 29 1
33 29 30 2
34 30 31 1
35 32 33 2
36 32 34 1
@<TRIPOS>SUBSTRUCTURE
1	UNK0	1	GROUP	1 ****	UNK
