# created with PyMOL 2.5.0
@<TRIPOS>MOLECULE
MOL
75 79 1                 
SMALL
USER_CHARGES
@<TRIPOS>ATOM
1	 H34	11.691	6.381	28.057	 H	1	UNK0	0.000	
2	 H32	9.245	6.401	27.690	 H	1	UNK0	0.000	
3	 H17	5.015	3.565	20.009	 H	1	UNK0	0.000	
4	 H33	12.287	8.919	24.615	 H	1	UNK0	0.000	
5	 H01	3.794	6.832	22.880	 H	1	UNK0	0.000	
6	 H16	5.740	0.700	19.916	 H	1	UNK0	0.000	
7	 H04	0.583	10.899	23.237	 H	1	UNK0	0.000	
8	 H03	1.188	9.826	21.076	 H	1	UNK0	0.000	
9	 H02	-0.174	8.986	21.871	 H	1	UNK0	0.000	
10	 H14	8.866	3.305	20.046	 H	1	UNK0	0.000	
11	 H08	1.676	6.817	25.170	 H	1	UNK0	0.000	
12	 H07	0.274	6.765	23.024	 H	1	UNK0	0.000	
13	 H18	6.903	5.058	20.225	 H	1	UNK0	0.000	
14	 H06	1.890	6.027	22.848	 H	1	UNK0	0.000	
15	 H13	7.519	3.538	18.768	 H	1	UNK0	0.000	
16	 H12	5.426	4.882	22.648	 H	1	UNK0	0.000	
17	 H27	6.167	6.954	22.122	 H	1	UNK0	0.000	
18	 H11	3.957	3.878	22.315	 H	1	UNK0	0.000	
19	 H10	3.150	5.355	21.002	 H	1	UNK0	0.000	
20	 H05	2.232	10.223	23.286	 H	1	UNK0	0.000	
21	 H15	7.017	0.564	21.277	 H	1	UNK0	0.000	
22	 H26	5.578	8.095	20.856	 H	1	UNK0	0.000	
23	 H21	4.672	1.739	21.613	 H	1	UNK0	0.000	
24	 H20	6.224	2.195	22.429	 H	1	UNK0	0.000	
25	 H19	7.509	4.140	21.662	 H	1	UNK0	0.000	
26	 H22	7.975	-1.247	16.040	 H	1	UNK0	0.000	
27	 H25	11.466	-0.448	18.175	 H	1	UNK0	0.000	
28	 H24	10.264	1.074	19.729	 H	1	UNK0	0.000	
29	 H23	6.634	0.244	17.512	 H	1	UNK0	0.000	
30	 H09	2.814	7.864	24.336	 H	1	UNK0	0.000	
31	 H30	10.339	9.677	23.310	 H	1	UNK0	0.000	
32	 H29	7.325	7.143	26.410	 H	1	UNK0	0.000	
33	 H28	6.190	9.402	22.497	 H	1	UNK0	0.000	
34	 H31	7.869	9.696	22.964	 H	1	UNK0	0.000	
35	  C1	4.042	6.983	21.829	C.3	1	UNK0	0.000	
36	  C2	2.887	7.847	21.260	C.2	1	UNK0	0.000	
37	  O1	2.947	8.016	20.044	O.2	1	UNK0	0.000	
38	  N1	1.669	7.917	21.902	N.pl3	1	UNK0	0.000	
39	  C3	0.891	9.212	21.926	C.3	1	UNK0	0.000	
40	  C4	1.171	9.981	23.229	C.3	1	UNK0	0.000	
41	  S1	0.708	8.963	24.655	S.o2	1	UNK0	0.000	
42	  O2	-0.790	8.486	24.647	O.2	1	UNK0	0.000	
43	  O3	1.002	9.716	26.010	O.2	1	UNK0	0.000	
44	  C5	1.347	6.957	23.014	C.3	1	UNK0	0.000	
45	  C6	1.771	7.551	24.370	C.3	1	UNK0	0.000	
46	  N2	4.103	5.632	21.186	N.3	1	UNK0	0.000	
47	  C7	4.755	4.485	21.887	C.3	1	UNK0	0.000	
48	  N3	7.568	1.698	19.667	N.pl3	1	UNK0	0.000	
49	  C8	7.822	3.185	19.754	C.3	1	UNK0	0.000	
50	  C9	6.471	1.183	20.565	C.3	1	UNK0	0.000	
51	 C10	5.569	3.565	20.947	C.3	1	UNK0	0.000	
52	 C11	6.994	4.083	20.704	C.3	1	UNK0	0.000	
53	 C12	5.679	2.138	21.487	C.3	1	UNK0	0.000	
54	 C13	8.462	-0.724	16.863	C.2	1	UNK0	0.000	
55	 C14	8.333	0.793	18.759	C.2	1	UNK0	0.000	
56	 C15	7.702	0.115	17.691	C.2	1	UNK0	0.000	
57	 C16	9.723	0.577	18.925	C.2	1	UNK0	0.000	
58	  N4	9.759	-0.893	17.062	N.2	1	UNK0	0.000	
59	 C17	10.396	-0.281	18.046	C.2	1	UNK0	0.000	
60	 C18	5.404	7.683	21.850	C.3	1	UNK0	0.000	
61	  N5	5.451	8.782	22.796	N.3	1	UNK0	0.000	
62	  S2	5.724	8.429	24.433	S.o2	1	UNK0	0.000	
63	  O4	5.077	7.045	24.834	O.2	1	UNK0	0.000	
64	  O5	5.041	9.584	25.280	O.2	1	UNK0	0.000	
65	 C19	7.989	7.691	25.742	C.2	1	UNK0	0.000	
66	 C20	7.465	8.416	24.674	C.2	1	UNK0	0.000	
67	 C21	10.240	8.407	25.053	C.2	1	UNK0	0.000	
68	 C22	9.689	9.125	23.989	C.2	1	UNK0	0.000	
69	 C23	8.301	9.135	23.793	C.2	1	UNK0	0.000	
70	 C24	9.364	7.671	25.952	C.2	1	UNK0	0.000	
71	 C25	9.901	6.953	27.017	C.2	1	UNK0	0.000	
72	 C26	11.610	8.378	25.277	C.2	1	UNK0	0.000	
73	 C27	11.271	6.942	27.222	C.2	1	UNK0	0.000	
74	 C28	12.114	7.645	26.362	C.2	1	UNK0	0.000	
75	 Cl1	13.834	7.603	26.649	Cl	1	UNK0	0.000	
@<TRIPOS>BOND
1 5 35 1
2 35 36 1
3 35 46 1
4 35 60 1
5 36 37 2
6 36 38 1
7 38 39 1
8 38 44 1
9 8 39 1
10 9 39 1
11 39 40 1
12 7 40 1
13 20 40 1
14 40 41 1
15 41 42 2
16 41 43 2
17 41 45 1
18 12 44 1
19 14 44 1
20 44 45 1
21 11 45 1
22 30 45 1
23 19 46 1
24 46 47 1
25 16 47 1
26 18 47 1
27 47 51 1
28 48 49 1
29 48 50 1
30 48 55 1
31 10 49 1
32 15 49 1
33 49 52 1
34 6 50 1
35 21 50 1
36 50 53 1
37 3 51 1
38 51 52 1
39 51 53 1
40 13 52 1
41 25 52 1
42 23 53 1
43 24 53 1
44 26 54 1
45 54 56 1
46 54 58 2
47 55 56 2
48 55 57 1
49 29 56 1
50 28 57 1
51 57 59 2
52 58 59 1
53 27 59 1
54 17 60 1
55 22 60 1
56 60 61 1
57 33 61 1
58 61 62 1
59 62 63 2
60 62 64 2
61 62 66 1
62 32 65 1
63 65 66 2
64 65 70 1
65 66 69 1
66 67 68 1
67 67 70 1
68 67 72 2
69 31 68 1
70 68 69 2
71 34 69 1
72 70 71 2
73 2 71 1
74 71 73 1
75 4 72 1
76 72 74 1
77 1 73 1
78 73 74 2
79 74 75 1
@<TRIPOS>SUBSTRUCTURE
1	UNK0	1	GROUP	1 ****	UNK
