# created with PyMOL 2.5.0
@<TRIPOS>MOLECULE
MOL
32 36 1                 
SMALL
USER_CHARGES
@<TRIPOS>ATOM
1	  N1	7.360	3.564	20.282	N.2	1	UNK0	0.000	
2	  C1	6.624	2.401	20.534	C.2	1	UNK0	0.000	
3	  N2	5.547	2.427	21.436	N.pl3	1	UNK0	0.000	
4	  C2	5.611	3.767	21.792	C.2	1	UNK0	0.000	
5	  C3	6.690	4.439	21.105	C.2	1	UNK0	0.000	
6	  C4	4.782	4.495	22.706	C.2	1	UNK0	0.000	
7	  C5	5.030	5.857	22.914	C.2	1	UNK0	0.000	
8	  C6	6.090	6.531	22.242	C.2	1	UNK0	0.000	
9	  C7	6.930	5.830	21.332	C.2	1	UNK0	0.000	
10	  C8	4.612	1.355	21.879	C.3	1	UNK0	0.000	
11	  C9	7.015	1.102	19.805	C.3	1	UNK0	0.000	
12	  N3	7.956	1.241	18.672	N.pl3	1	UNK0	0.000	
13	 C10	10.582	-1.772	17.060	C.2	1	UNK0	0.000	
14	 C11	11.010	-0.896	18.112	C.2	1	UNK0	0.000	
15	 C12	10.158	0.087	18.639	C.2	1	UNK0	0.000	
16	 C13	8.844	0.240	18.145	C.2	1	UNK0	0.000	
17	 C14	8.383	-0.599	17.110	C.2	1	UNK0	0.000	
18	 C15	9.235	-1.593	16.572	C.2	1	UNK0	0.000	
19	  N4	12.746	-2.690	16.606	N.pl3	1	UNK0	0.000	
20	  N5	11.041	-3.870	15.977	N.2	1	UNK0	0.000	
21	 C16	11.436	-2.748	16.541	C.2	1	UNK0	0.000	
22	 C17	6.304	8.033	22.511	C.3	1	UNK0	0.000	
23	  N6	7.738	8.409	22.784	N.pl3	1	UNK0	0.000	
24	 C18	8.727	9.031	21.986	C.2	1	UNK0	0.000	
25	  N7	10.010	9.282	22.471	N.2	1	UNK0	0.000	
26	 C19	9.849	8.765	23.740	C.2	1	UNK0	0.000	
27	 C20	8.510	8.245	23.933	C.2	1	UNK0	0.000	
28	 C21	10.809	8.700	24.802	C.2	1	UNK0	0.000	
29	 C22	10.427	8.126	26.033	C.2	1	UNK0	0.000	
30	 C23	9.120	7.616	26.229	C.2	1	UNK0	0.000	
31	 C24	8.154	7.670	25.200	C.2	1	UNK0	0.000	
32	 C25	8.432	9.459	20.556	C.3	1	UNK0	0.000	
@<TRIPOS>BOND
1 1 2 2
2 1 5 1
3 2 3 1
4 2 11 1
5 3 4 1
6 3 10 1
7 4 5 1
8 4 6 2
9 5 9 2
10 6 7 1
11 7 8 2
12 8 9 1
13 8 22 1
14 11 12 1
15 12 16 1
16 13 14 1
17 13 18 2
18 13 21 1
19 14 15 2
20 15 16 1
21 16 17 2
22 17 18 1
23 19 21 1
24 20 21 2
25 22 23 1
26 23 24 1
27 23 27 1
28 24 25 2
29 24 32 1
30 25 26 1
31 26 27 1
32 26 28 2
33 27 31 2
34 28 29 1
35 29 30 2
36 30 31 1
@<TRIPOS>SUBSTRUCTURE
1	UNK0	1	GROUP	1 ****	UNK
