# created with PyMOL 2.5.0
@<TRIPOS>MOLECULE
MOL
41 45 1                 
SMALL
USER_CHARGES
@<TRIPOS>ATOM
1	  C1	4.042	6.983	21.829	C.3	1	UNK0	0.000	
2	  C2	2.887	7.847	21.260	C.2	1	UNK0	0.000	
3	  O1	2.947	8.016	20.044	O.2	1	UNK0	0.000	
4	  N1	1.669	7.917	21.902	N.pl3	1	UNK0	0.000	
5	  C3	0.891	9.212	21.926	C.3	1	UNK0	0.000	
6	  C4	1.171	9.981	23.229	C.3	1	UNK0	0.000	
7	  S1	0.708	8.963	24.655	S.o2	1	UNK0	0.000	
8	  O2	-0.790	8.486	24.647	O.2	1	UNK0	0.000	
9	  O3	1.002	9.716	26.010	O.2	1	UNK0	0.000	
10	  C5	1.347	6.957	23.014	C.3	1	UNK0	0.000	
11	  C6	1.771	7.551	24.370	C.3	1	UNK0	0.000	
12	  N2	4.103	5.632	21.186	N.3	1	UNK0	0.000	
13	  C7	4.755	4.485	21.887	C.3	1	UNK0	0.000	
14	  N3	7.568	1.698	19.667	N.pl3	1	UNK0	0.000	
15	  C8	7.822	3.185	19.754	C.3	1	UNK0	0.000	
16	  C9	6.471	1.183	20.565	C.3	1	UNK0	0.000	
17	 C10	5.569	3.565	20.947	C.3	1	UNK0	0.000	
18	 C11	6.994	4.083	20.704	C.3	1	UNK0	0.000	
19	 C12	5.679	2.138	21.487	C.3	1	UNK0	0.000	
20	 C13	8.462	-0.724	16.863	C.2	1	UNK0	0.000	
21	 C14	8.333	0.793	18.759	C.2	1	UNK0	0.000	
22	 C15	7.702	0.115	17.691	C.2	1	UNK0	0.000	
23	 C16	9.723	0.577	18.925	C.2	1	UNK0	0.000	
24	  N4	9.759	-0.893	17.062	N.2	1	UNK0	0.000	
25	 C17	10.396	-0.281	18.046	C.2	1	UNK0	0.000	
26	 C18	5.404	7.683	21.850	C.3	1	UNK0	0.000	
27	  N5	5.451	8.782	22.796	N.3	1	UNK0	0.000	
28	  S2	5.724	8.429	24.433	S.o2	1	UNK0	0.000	
29	  O4	5.077	7.045	24.834	O.2	1	UNK0	0.000	
30	  O5	5.041	9.584	25.280	O.2	1	UNK0	0.000	
31	 C19	7.989	7.691	25.742	C.2	1	UNK0	0.000	
32	 C20	7.465	8.416	24.674	C.2	1	UNK0	0.000	
33	 C21	10.240	8.407	25.053	C.2	1	UNK0	0.000	
34	 C22	9.689	9.125	23.989	C.2	1	UNK0	0.000	
35	 C23	8.301	9.135	23.793	C.2	1	UNK0	0.000	
36	 C24	9.364	7.671	25.952	C.2	1	UNK0	0.000	
37	 C25	9.901	6.953	27.017	C.2	1	UNK0	0.000	
38	 C26	11.610	8.378	25.277	C.2	1	UNK0	0.000	
39	 C27	11.271	6.942	27.222	C.2	1	UNK0	0.000	
40	 C28	12.114	7.645	26.362	C.2	1	UNK0	0.000	
41	 Cl1	13.834	7.603	26.649	Cl	1	UNK0	0.000	
@<TRIPOS>BOND
1 1 2 1
2 1 12 1
3 1 26 1
4 2 3 2
5 2 4 1
6 4 5 1
7 4 10 1
8 5 6 1
9 6 7 1
10 7 8 2
11 7 9 2
12 7 11 1
13 10 11 1
14 12 13 1
15 13 17 1
16 14 15 1
17 14 16 1
18 14 21 1
19 15 18 1
20 16 19 1
21 17 18 1
22 17 19 1
23 20 22 1
24 20 24 2
25 21 22 2
26 21 23 1
27 23 25 2
28 24 25 1
29 26 27 1
30 27 28 1
31 28 29 2
32 28 30 2
33 28 32 1
34 31 32 2
35 31 36 1
36 32 35 1
37 33 34 1
38 33 36 1
39 33 38 2
40 34 35 2
41 36 37 2
42 37 39 1
43 38 40 1
44 39 40 2
45 40 41 1
@<TRIPOS>SUBSTRUCTURE
1	UNK0	1	GROUP	1 ****	UNK
