# created with PyMOL 2.5.0
@<TRIPOS>MOLECULE
MOL
64 66 1                 
SMALL
USER_CHARGES
@<TRIPOS>ATOM
1	 H16	5.873	8.559	20.026	 H	1	UNK0	0.000	
2	 H15	7.542	8.133	20.474	 H	1	UNK0	0.000	
3	 H07	10.294	0.591	19.031	 H	1	UNK0	0.000	
4	 H05	9.305	1.860	20.067	 H	1	UNK0	0.000	
5	 H04	5.967	1.428	17.355	 H	1	UNK0	0.000	
6	 H03	4.809	3.338	18.466	 H	1	UNK0	0.000	
7	 H01	7.505	5.850	20.721	 H	1	UNK0	0.000	
8	 H14	4.936	7.152	21.624	 H	1	UNK0	0.000	
9	 H13	8.718	-1.806	13.596	 H	1	UNK0	0.000	
10	 H08	11.480	-1.304	17.931	 H	1	UNK0	0.000	
11	 H11	7.413	-3.304	15.740	 H	1	UNK0	0.000	
12	 H10	6.870	-1.792	14.942	 H	1	UNK0	0.000	
13	 H21	3.294	8.632	24.189	 H	1	UNK0	0.000	
14	 H09	10.307	-2.690	16.195	 H	1	UNK0	0.000	
15	 H06	6.753	-0.222	16.694	 H	1	UNK0	0.000	
16	 H02	8.170	3.761	21.189	 H	1	UNK0	0.000	
17	 H30	9.452	6.234	29.028	 H	1	UNK0	0.000	
18	 H17	6.581	9.195	21.530	 H	1	UNK0	0.000	
19	 H20	3.567	8.894	25.929	 H	1	UNK0	0.000	
20	 H19	2.966	7.322	25.349	 H	1	UNK0	0.000	
21	 H18	7.282	6.343	23.248	 H	1	UNK0	0.000	
22	 H29	8.363	7.224	28.083	 H	1	UNK0	0.000	
23	 H24	7.898	7.063	25.848	 H	1	UNK0	0.000	
24	 H23	7.185	9.077	22.661	 H	1	UNK0	0.000	
25	 H22	6.368	8.852	24.298	 H	1	UNK0	0.000	
26	 H25	11.943	8.625	26.021	 H	1	UNK0	0.000	
27	 H28	12.139	6.464	26.750	 H	1	UNK0	0.000	
28	 H27	9.266	9.914	22.882	 H	1	UNK0	0.000	
29	 H26	11.497	10.000	23.986	 H	1	UNK0	0.000	
30	 H12	8.172	-3.362	13.570	 H	1	UNK0	0.000	
31	  C1	5.713	4.845	20.596	C.2	1	UNK0	0.000	
32	  N1	6.521	5.904	20.943	N.pl3	1	UNK0	0.000	
33	  O1	4.501	4.848	20.840	O.2	1	UNK0	0.000	
34	  C2	7.680	3.260	20.354	C.2	1	UNK0	0.000	
35	  C3	6.396	3.706	19.922	C.2	1	UNK0	0.000	
36	  C4	5.789	3.022	18.823	C.2	1	UNK0	0.000	
37	  C5	6.451	1.934	18.190	C.2	1	UNK0	0.000	
38	  C6	7.727	1.494	18.623	C.2	1	UNK0	0.000	
39	  C7	8.324	2.178	19.714	C.2	1	UNK0	0.000	
40	  C8	7.782	-0.453	16.967	C.2	1	UNK0	0.000	
41	  C9	8.434	0.335	17.949	C.2	1	UNK0	0.000	
42	 C10	9.772	0.001	18.278	C.2	1	UNK0	0.000	
43	 C11	10.450	-1.077	17.655	C.2	1	UNK0	0.000	
44	 C12	9.791	-1.859	16.676	C.2	1	UNK0	0.000	
45	 C13	8.450	-1.545	16.329	C.2	1	UNK0	0.000	
46	 C14	7.731	-2.362	15.292	C.3	1	UNK0	0.000	
47	  N2	8.596	-2.647	14.142	N.3	1	UNK0	0.000	
48	 C15	6.025	7.109	21.621	C.3	1	UNK0	0.000	
49	 C16	6.542	8.338	20.857	C.3	1	UNK0	0.000	
50	 C17	6.489	7.080	23.126	C.3	1	UNK0	0.000	
51	 C18	5.273	6.694	24.012	C.2	1	UNK0	0.000	
52	  O2	4.706	5.637	23.977	O.co2	1	UNK0	0.000	
53	  O3	4.969	7.700	24.978	O.3	1	UNK0	0.000	
54	 C19	3.618	8.165	25.120	C.3	1	UNK0	0.000	
55	 C20	7.077	8.473	23.562	C.3	1	UNK0	0.000	
56	 C21	8.681	7.703	25.440	C.2	1	UNK0	0.000	
57	 C22	9.948	7.746	26.073	C.2	1	UNK0	0.000	
58	 C23	10.966	8.583	25.540	C.2	1	UNK0	0.000	
59	 C24	10.714	9.360	24.393	C.2	1	UNK0	0.000	
60	 C25	9.452	9.310	23.770	C.2	1	UNK0	0.000	
61	 C26	8.418	8.483	24.281	C.2	1	UNK0	0.000	
62	 C27	10.215	6.942	27.271	C.2	1	UNK0	0.000	
63	  N3	11.415	6.354	27.446	N.2	1	UNK0	0.000	
64	  N4	9.265	6.787	28.204	N.pl3	1	UNK0	0.000	
@<TRIPOS>BOND
1 31 32 1
2 31 33 2
3 31 35 1
4 7 32 1
5 32 48 1
6 16 34 1
7 34 35 1
8 34 39 2
9 35 36 2
10 6 36 1
11 36 37 1
12 5 37 1
13 37 38 2
14 38 39 1
15 38 41 1
16 4 39 1
17 15 40 1
18 40 41 1
19 40 45 2
20 41 42 2
21 3 42 1
22 42 43 1
23 10 43 1
24 43 44 2
25 14 44 1
26 44 45 1
27 45 46 1
28 11 46 1
29 12 46 1
30 46 47 1
31 9 47 1
32 30 47 1
33 8 48 1
34 48 49 1
35 48 50 1
36 1 49 1
37 2 49 1
38 18 49 1
39 21 50 1
40 50 51 1
41 50 55 1
42 51 52 2
43 51 53 1
44 53 54 1
45 13 54 1
46 19 54 1
47 20 54 1
48 24 55 1
49 25 55 1
50 55 61 1
51 23 56 1
52 56 57 1
53 56 61 2
54 57 58 2
55 57 62 1
56 26 58 1
57 58 59 1
58 29 59 1
59 59 60 2
60 28 60 1
61 60 61 1
62 62 63 2
63 62 64 1
64 27 63 1
65 17 64 1
66 22 64 1
@<TRIPOS>SUBSTRUCTURE
1	UNK0	1	GROUP	1 ****	UNK
