# created with PyMOL 2.5.0
@<TRIPOS>MOLECULE
MOL
61 64 1                 
SMALL
USER_CHARGES
@<TRIPOS>ATOM
1	 H12	9.584	6.126	28.954	 H	1	UNK0	0.000	
2	 H14	11.696	6.138	28.417	 H	1	UNK0	0.000	
3	 H11	11.343	9.833	23.720	 H	1	UNK0	0.000	
4	 H22	8.993	-1.167	15.987	 H	1	UNK0	0.000	
5	 H01	4.825	8.831	21.823	 H	1	UNK0	0.000	
6	 H15	5.971	3.603	22.334	 H	1	UNK0	0.000	
7	 H20	6.699	0.549	16.098	 H	1	UNK0	0.000	
8	 H17	6.559	-0.205	20.391	 H	1	UNK0	0.000	
9	 H02	2.041	7.549	19.870	 H	1	UNK0	0.000	
10	 H23	11.320	-0.749	17.653	 H	1	UNK0	0.000	
11	 H06	4.140	7.914	18.188	 H	1	UNK0	0.000	
12	 H03	2.732	6.378	21.017	 H	1	UNK0	0.000	
13	 H10	11.967	8.605	25.794	 H	1	UNK0	0.000	
14	 H19	6.069	0.711	17.754	 H	1	UNK0	0.000	
15	 H05	3.519	9.376	19.116	 H	1	UNK0	0.000	
16	 H04	2.446	8.060	21.525	 H	1	UNK0	0.000	
17	 H21	6.301	-0.905	17.045	 H	1	UNK0	0.000	
18	 H16	5.358	1.190	22.074	 H	1	UNK0	0.000	
19	 H09	7.922	7.075	26.078	 H	1	UNK0	0.000	
20	 H08	8.725	9.153	21.979	 H	1	UNK0	0.000	
21	 H07	6.774	9.239	17.384	 H	1	UNK0	0.000	
22	 H18	8.938	3.205	19.216	 H	1	UNK0	0.000	
23	 H13	8.368	6.884	27.950	 H	1	UNK0	0.000	
24	  C1	5.541	8.080	22.156	C.3	1	UNK0	0.000	
25	  F1	4.876	9.128	22.563	 F	1	UNK0	0.000	
26	  C2	5.160	7.374	20.991	C.2	1	UNK0	0.000	
27	  C3	5.938	6.249	20.603	C.2	1	UNK0	0.000	
28	  F2	5.650	5.567	19.547	 F	1	UNK0	0.000	
29	  C4	7.044	5.868	21.372	C.2	1	UNK0	0.000	
30	  N1	7.348	6.561	22.457	N.2	1	UNK0	0.000	
31	  C5	6.660	7.630	22.889	C.2	1	UNK0	0.000	
32	  N2	4.073	7.778	20.257	N.pl3	1	UNK0	0.000	
33	  C6	2.741	7.419	20.695	C.3	1	UNK0	0.000	
34	  C7	4.260	8.579	19.044	C.3	1	UNK0	0.000	
35	  C8	5.584	9.291	18.885	C.2	1	UNK0	0.000	
36	  O1	5.828	10.421	19.413	O.co2	1	UNK0	0.000	
37	  O2	6.585	8.705	18.159	O.3	1	UNK0	0.000	
38	  O3	7.060	8.248	23.993	O.3	1	UNK0	0.000	
39	  O4	8.965	9.781	22.664	O.3	1	UNK0	0.000	
40	  C9	8.319	8.376	24.412	C.2	1	UNK0	0.000	
41	 C10	8.673	7.679	25.569	C.2	1	UNK0	0.000	
42	 C11	9.985	7.738	26.097	C.2	1	UNK0	0.000	
43	 C12	10.950	8.535	25.409	C.2	1	UNK0	0.000	
44	 C13	10.598	9.230	24.240	C.2	1	UNK0	0.000	
45	 C14	9.277	9.148	23.736	C.2	1	UNK0	0.000	
46	 C15	10.293	7.033	27.257	C.2	1	UNK0	0.000	
47	  N3	9.334	6.649	28.127	N.pl3	1	UNK0	0.000	
48	  N4	11.526	6.661	27.570	N.2	1	UNK0	0.000	
49	  O5	7.760	4.842	20.993	O.3	1	UNK0	0.000	
50	 C16	7.500	3.556	20.780	C.2	1	UNK0	0.000	
51	 C17	6.484	2.987	21.596	C.2	1	UNK0	0.000	
52	 C18	6.140	1.629	21.454	C.2	1	UNK0	0.000	
53	 C19	6.815	0.848	20.503	C.2	1	UNK0	0.000	
54	 C20	7.831	1.417	19.682	C.2	1	UNK0	0.000	
55	 C21	8.158	2.765	19.838	C.2	1	UNK0	0.000	
56	 C22	8.492	0.651	18.725	C.2	1	UNK0	0.000	
57	  N5	8.021	0.079	17.604	N.pl3	1	UNK0	0.000	
58	 C23	6.696	0.110	17.095	C.3	1	UNK0	0.000	
59	  N6	9.802	0.397	18.859	N.2	1	UNK0	0.000	
60	 C24	9.059	-0.610	16.921	C.2	1	UNK0	0.000	
61	 C25	10.303	-0.387	17.806	C.2	1	UNK0	0.000	
@<TRIPOS>BOND
1 5 24 1
2 24 25 1
3 24 26 1
4 24 31 1
5 26 27 2
6 26 32 1
7 27 28 1
8 27 29 1
9 29 30 2
10 29 49 1
11 30 31 2
12 31 38 1
13 32 33 1
14 32 34 1
15 9 33 1
16 12 33 1
17 16 33 1
18 11 34 1
19 15 34 1
20 34 35 1
21 35 36 2
22 35 37 1
23 21 37 1
24 38 40 1
25 20 39 1
26 39 45 1
27 40 41 1
28 40 45 2
29 19 41 1
30 41 42 2
31 42 43 1
32 42 46 1
33 13 43 1
34 43 44 2
35 3 44 1
36 44 45 1
37 46 47 1
38 46 48 2
39 1 47 1
40 23 47 1
41 2 48 1
42 49 50 1
43 50 51 1
44 50 55 2
45 6 51 1
46 51 52 2
47 18 52 1
48 52 53 1
49 8 53 1
50 53 54 2
51 54 55 1
52 54 56 1
53 22 55 1
54 56 57 1
55 56 59 2
56 57 58 1
57 57 60 1
58 7 58 1
59 14 58 1
60 17 58 1
61 59 61 1
62 4 60 1
63 60 61 2
64 10 61 1
@<TRIPOS>SUBSTRUCTURE
1	UNK0	1	GROUP	1 ****	UNK
