# created with PyMOL 2.5.0
@<TRIPOS>MOLECULE
MOL
33 36 1                 
SMALL
USER_CHARGES
@<TRIPOS>ATOM
1	  C1	6.152	2.335	20.346	C.3	1	UNK0	0.000	
2	  C2	5.283	4.604	21.112	C.2	1	UNK0	0.000	
3	  C3	5.503	5.942	21.410	C.2	1	UNK0	0.000	
4	  C4	7.665	4.277	20.784	C.2	1	UNK0	0.000	
5	  C5	7.884	5.614	21.086	C.2	1	UNK0	0.000	
6	  C6	6.801	6.441	21.395	C.2	1	UNK0	0.000	
7	  C7	6.367	3.780	20.787	C.2	1	UNK0	0.000	
8	  O1	7.006	7.839	21.693	O.3	1	UNK0	0.000	
9	  N1	9.258	8.514	24.348	N.3	1	UNK0	0.000	
10	  C8	8.890	8.671	22.947	C.3	1	UNK0	0.000	
11	  C9	7.414	8.354	22.915	C.3	1	UNK0	0.000	
12	 C10	7.297	7.450	24.082	C.3	1	UNK0	0.000	
13	 C11	8.278	7.798	25.173	C.3	1	UNK0	0.000	
14	 C12	10.403	9.004	24.813	C.3	1	UNK0	0.000	
15	  N2	10.809	10.197	24.416	N.3	1	UNK0	0.000	
16	 C13	11.273	8.302	25.857	C.3	1	UNK0	0.000	
17	 C14	5.049	1.492	20.986	C.2	1	UNK0	0.000	
18	  O2	4.271	0.848	20.275	O.co2	1	UNK0	0.000	
19	  O3	5.016	1.459	22.218	O.co2	1	UNK0	0.000	
20	 C15	5.914	2.309	18.841	C.3	1	UNK0	0.000	
21	 C16	7.769	0.768	18.273	C.2	1	UNK0	0.000	
22	 C17	6.447	1.113	18.071	C.2	1	UNK0	0.000	
23	 C18	5.680	0.361	17.160	C.2	1	UNK0	0.000	
24	 C19	6.281	-0.644	16.393	C.2	1	UNK0	0.000	
25	 C20	7.638	-0.929	16.577	C.2	1	UNK0	0.000	
26	 C21	8.264	-1.934	15.839	C.2	1	UNK0	0.000	
27	 C22	9.615	-2.216	16.062	C.2	1	UNK0	0.000	
28	 C23	10.343	-1.542	17.059	C.2	1	UNK0	0.000	
29	 C24	9.701	-0.505	17.713	C.2	1	UNK0	0.000	
30	 C25	8.373	-0.223	17.538	C.2	1	UNK0	0.000	
31	 C26	11.638	-1.888	17.417	C.2	1	UNK0	0.000	
32	  N3	12.192	-1.313	18.488	N.pl3	1	UNK0	0.000	
33	  N4	12.310	-2.796	16.697	N.pl3	1	UNK0	0.000	
@<TRIPOS>BOND
1 1 7 1
2 1 17 1
3 1 20 1
4 2 3 1
5 2 7 2
6 3 6 2
7 4 5 2
8 4 7 1
9 5 6 1
10 6 8 1
11 8 11 1
12 9 10 1
13 9 13 1
14 9 14 1
15 10 11 1
16 11 12 1
17 12 13 1
18 14 15 1
19 14 16 1
20 17 18 1
21 17 19 2
22 20 22 1
23 21 22 2
24 21 30 1
25 22 23 1
26 23 24 2
27 24 25 1
28 25 26 2
29 25 30 1
30 26 27 1
31 27 28 2
32 28 29 1
33 28 31 1
34 29 30 2
35 31 32 1
36 31 33 2
@<TRIPOS>SUBSTRUCTURE
1	UNK0	1	GROUP	1 ****	UNK
