# created with PyMOL 2.5.0
@<TRIPOS>MOLECULE
MOL
67 72 1                 
SMALL
USER_CHARGES
@<TRIPOS>ATOM
1	 H07	8.791	6.420	22.010	 H	1	UNK0	0.000	
2	 H27	-0.345	6.013	18.624	 H	1	UNK0	0.000	
3	 H28	1.048	5.248	17.823	 H	1	UNK0	0.000	
4	 H12	6.867	5.335	20.790	 H	1	UNK0	0.000	
5	 H09	5.902	9.034	22.838	 H	1	UNK0	0.000	
6	 H25	1.893	5.613	21.582	 H	1	UNK0	0.000	
7	 H02	3.749	5.070	16.686	 H	1	UNK0	0.000	
8	 H26	1.754	4.177	20.474	 H	1	UNK0	0.000	
9	 H08	7.798	7.578	21.075	 H	1	UNK0	0.000	
10	 H03	5.149	3.659	19.926	 H	1	UNK0	0.000	
11	 H06	5.768	7.759	20.193	 H	1	UNK0	0.000	
12	 H05	4.206	8.107	20.864	 H	1	UNK0	0.000	
13	 H16	9.751	9.516	22.827	 H	1	UNK0	0.000	
14	 H04	3.513	3.019	20.279	 H	1	UNK0	0.000	
15	 H11	6.836	5.115	22.588	 H	1	UNK0	0.000	
16	 H10	6.048	8.513	24.551	 H	1	UNK0	0.000	
17	 H01	5.398	4.510	17.290	 H	1	UNK0	0.000	
18	 H29	0.255	4.438	19.196	 H	1	UNK0	0.000	
19	 H15	11.598	9.994	24.443	 H	1	UNK0	0.000	
20	 H14	5.193	6.304	24.008	 H	1	UNK0	0.000	
21	 H13	4.093	7.533	23.254	 H	1	UNK0	0.000	
22	 H24	10.524	0.597	19.503	 H	1	UNK0	0.000	
23	 H19	5.967	2.371	19.133	 H	1	UNK0	0.000	
24	 H18	9.985	7.316	27.336	 H	1	UNK0	0.000	
25	 H17	8.062	6.717	25.841	 H	1	UNK0	0.000	
26	 H20	6.297	-1.125	15.349	 H	1	UNK0	0.000	
27	 H23	8.783	-1.621	16.096	 H	1	UNK0	0.000	
28	 H22	8.398	1.884	19.861	 H	1	UNK0	0.000	
29	 H21	4.178	0.195	15.708	 H	1	UNK0	0.000	
30	  C1	4.656	6.256	18.251	C.2	1	UNK0	0.000	
31	  O1	5.157	7.173	17.605	O.2	1	UNK0	0.000	
32	  C2	4.403	4.880	17.538	C.3	1	UNK0	0.000	
33	  N1	3.784	3.791	18.340	N.3	1	UNK0	0.000	
34	  C3	3.680	5.210	20.434	C.3	1	UNK0	0.000	
35	  C4	4.078	3.812	19.788	C.3	1	UNK0	0.000	
36	  N2	4.285	6.339	19.640	N.pl3	1	UNK0	0.000	
37	  C5	4.876	7.287	20.604	C.3	1	UNK0	0.000	
38	  N3	7.576	7.731	23.226	N.pl3	1	UNK0	0.000	
39	  C6	7.820	6.908	21.935	C.3	1	UNK0	0.000	
40	  C7	6.124	8.204	23.508	C.3	1	UNK0	0.000	
41	  C8	5.234	6.377	21.826	C.3	1	UNK0	0.000	
42	  O2	4.260	5.294	21.733	O.3	1	UNK0	0.000	
43	  C9	6.723	5.813	21.758	C.3	1	UNK0	0.000	
44	 C10	5.078	7.067	23.238	C.3	1	UNK0	0.000	
45	 C11	10.819	9.286	24.726	C.2	1	UNK0	0.000	
46	 C12	8.703	8.057	24.163	C.2	1	UNK0	0.000	
47	 C13	9.769	9.018	23.796	C.2	1	UNK0	0.000	
48	 C14	8.811	7.433	25.504	C.2	1	UNK0	0.000	
49	  N4	10.891	8.684	25.972	N.2	1	UNK0	0.000	
50	 C15	9.914	7.781	26.353	C.2	1	UNK0	0.000	
51	  S1	3.431	2.232	17.806	S.o2	1	UNK0	0.000	
52	  O3	2.649	2.393	16.471	O.2	1	UNK0	0.000	
53	  O4	2.603	1.475	18.861	O.2	1	UNK0	0.000	
54	 C16	6.052	1.632	18.337	C.2	1	UNK0	0.000	
55	 C17	4.913	1.398	17.463	C.2	1	UNK0	0.000	
56	 C18	7.415	-0.163	17.029	C.2	1	UNK0	0.000	
57	 C19	6.245	-0.389	16.151	C.2	1	UNK0	0.000	
58	 C20	5.032	0.370	16.362	C.2	1	UNK0	0.000	
59	 C21	7.301	0.905	18.177	C.2	1	UNK0	0.000	
60	 Cl1	11.301	-1.444	17.583	Cl	1	UNK0	0.000	
61	 C22	8.462	1.149	19.059	C.2	1	UNK0	0.000	
62	 C23	8.673	-0.873	16.881	C.2	1	UNK0	0.000	
63	 C24	9.670	0.412	18.851	C.2	1	UNK0	0.000	
64	 C25	9.790	-0.594	17.776	C.2	1	UNK0	0.000	
65	 C26	2.103	5.202	20.594	C.3	1	UNK0	0.000	
66	  O5	1.391	6.039	19.642	O.3	1	UNK0	0.000	
67	 C27	0.544	5.402	18.777	C.3	1	UNK0	0.000	
@<TRIPOS>BOND
1 30 31 2
2 30 32 1
3 30 36 1
4 7 32 1
5 17 32 1
6 32 33 1
7 33 35 1
8 33 51 1
9 34 35 1
10 34 36 1
11 34 42 1
12 34 65 1
13 10 35 1
14 14 35 1
15 36 37 1
16 11 37 1
17 12 37 1
18 37 41 1
19 38 39 1
20 38 40 1
21 38 46 1
22 1 39 1
23 9 39 1
24 39 43 1
25 5 40 1
26 16 40 1
27 40 44 1
28 41 42 1
29 41 43 1
30 41 44 1
31 4 43 1
32 15 43 1
33 20 44 1
34 21 44 1
35 19 45 1
36 45 47 2
37 45 49 1
38 46 47 1
39 46 48 2
40 13 47 1
41 25 48 1
42 48 50 1
43 49 50 2
44 24 50 1
45 51 52 2
46 51 53 2
47 51 55 1
48 23 54 1
49 54 55 2
50 54 59 1
51 55 58 1
52 56 57 1
53 56 59 1
54 56 62 2
55 26 57 1
56 57 58 2
57 29 58 1
58 59 61 2
59 60 64 1
60 28 61 1
61 61 63 1
62 27 62 1
63 62 64 1
64 22 63 1
65 63 64 2
66 6 65 1
67 8 65 1
68 65 66 1
69 66 67 1
70 2 67 1
71 3 67 1
72 18 67 1
@<TRIPOS>SUBSTRUCTURE
1	UNK0	1	GROUP	1 ****	UNK
