# created with PyMOL 2.5.0
@<TRIPOS>MOLECULE
MOL
67 72 1                 
SMALL
USER_CHARGES
@<TRIPOS>ATOM
1	 H07	8.812	1.884	20.299	 H	1	UNK0	0.000	
2	 H27	1.201	7.525	21.777	 H	1	UNK0	0.000	
3	 H28	2.874	7.934	22.225	 H	1	UNK0	0.000	
4	 H12	7.627	3.992	21.024	 H	1	UNK0	0.000	
5	 H09	5.243	1.261	18.643	 H	1	UNK0	0.000	
6	 H25	3.724	6.439	18.968	 H	1	UNK0	0.000	
7	 H02	4.355	6.424	24.187	 H	1	UNK0	0.000	
8	 H26	4.198	7.838	20.029	 H	1	UNK0	0.000	
9	 H08	7.149	1.597	20.896	 H	1	UNK0	0.000	
10	 H03	7.025	6.427	21.482	 H	1	UNK0	0.000	
11	 H06	5.240	2.685	21.213	 H	1	UNK0	0.000	
12	 H05	3.970	3.197	20.147	 H	1	UNK0	0.000	
13	 H16	10.111	0.802	19.391	 H	1	UNK0	0.000	
14	 H04	6.186	7.828	20.746	 H	1	UNK0	0.000	
15	 H11	8.153	3.983	19.290	 H	1	UNK0	0.000	
16	 H10	6.060	1.411	17.050	 H	1	UNK0	0.000	
17	 H01	6.114	5.892	24.055	 H	1	UNK0	0.000	
18	 H29	2.168	8.588	20.728	 H	1	UNK0	0.000	
19	 H15	11.584	-0.891	18.286	 H	1	UNK0	0.000	
20	 H14	6.517	3.764	17.445	 H	1	UNK0	0.000	
21	 H13	4.773	3.457	17.835	 H	1	UNK0	0.000	
22	 H24	10.639	6.134	28.348	 H	1	UNK0	0.000	
23	 H19	6.859	7.456	25.517	 H	1	UNK0	0.000	
24	 H18	8.471	-2.127	15.653	 H	1	UNK0	0.000	
25	 H17	6.857	-0.481	16.645	 H	1	UNK0	0.000	
26	 H20	10.971	9.612	23.261	 H	1	UNK0	0.000	
27	 H23	12.492	8.566	25.152	 H	1	UNK0	0.000	
28	 H22	8.348	6.433	27.364	 H	1	UNK0	0.000	
29	 H21	8.659	9.923	22.301	 H	1	UNK0	0.000	
30	  C1	4.762	4.764	22.862	C.2	1	UNK0	0.000	
31	  O1	4.482	3.805	23.577	O.2	1	UNK0	0.000	
32	  C2	5.178	6.117	23.543	C.3	1	UNK0	0.000	
33	  N1	5.502	7.265	22.654	N.3	1	UNK0	0.000	
34	  C3	5.105	5.919	20.547	C.3	1	UNK0	0.000	
35	  C4	6.063	6.918	21.332	C.3	1	UNK0	0.000	
36	  N2	4.751	4.745	21.423	N.pl3	1	UNK0	0.000	
37	  C5	4.904	3.525	20.605	C.3	1	UNK0	0.000	
38	  N3	7.396	1.349	18.756	N.pl3	1	UNK0	0.000	
39	  C6	7.751	2.036	20.100	C.3	1	UNK0	0.000	
40	  C7	6.049	1.741	18.088	C.3	1	UNK0	0.000	
41	  C8	5.993	3.932	19.558	C.3	1	UNK0	0.000	
42	  O2	5.821	5.376	19.441	O.3	1	UNK0	0.000	
43	  C9	7.470	3.569	20.032	C.3	1	UNK0	0.000	
44	 C10	5.810	3.290	18.126	C.3	1	UNK0	0.000	
45	 C11	10.554	-0.785	17.946	C.2	1	UNK0	0.000	
46	 C12	8.318	0.344	18.130	C.2	1	UNK0	0.000	
47	 C13	9.720	0.185	18.582	C.2	1	UNK0	0.000	
48	 C14	7.877	-0.542	17.026	C.2	1	UNK0	0.000	
49	  N4	10.109	-1.597	16.914	N.2	1	UNK0	0.000	
50	 C15	8.805	-1.480	16.465	C.2	1	UNK0	0.000	
51	  S1	5.986	8.803	23.143	S.o2	1	UNK0	0.000	
52	  O3	4.990	9.244	24.254	O.2	1	UNK0	0.000	
53	  O4	5.973	9.777	21.950	O.2	1	UNK0	0.000	
54	 C16	7.736	7.907	25.053	C.2	1	UNK0	0.000	
55	 C17	7.568	8.704	23.849	C.2	1	UNK0	0.000	
56	 C18	10.303	8.347	24.978	C.2	1	UNK0	0.000	
57	 C19	10.113	9.152	23.751	C.2	1	UNK0	0.000	
58	 C20	8.785	9.326	23.204	C.2	1	UNK0	0.000	
59	 C21	9.042	7.696	25.655	C.2	1	UNK0	0.000	
60	 Cl1	13.270	7.086	27.558	Cl	1	UNK0	0.000	
61	 C22	9.212	6.893	26.885	C.2	1	UNK0	0.000	
62	 C23	11.598	8.129	25.598	C.2	1	UNK0	0.000	
63	 C24	10.519	6.725	27.440	C.2	1	UNK0	0.000	
64	 C25	11.711	7.331	26.813	C.2	1	UNK0	0.000	
65	 C26	3.907	6.789	19.984	C.3	1	UNK0	0.000	
66	  O5	2.652	6.634	20.704	O.3	1	UNK0	0.000	
67	 C27	2.201	7.726	21.393	C.3	1	UNK0	0.000	
@<TRIPOS>BOND
1 30 31 2
2 30 32 1
3 30 36 1
4 7 32 1
5 17 32 1
6 32 33 1
7 33 35 1
8 33 51 1
9 34 35 1
10 34 36 1
11 34 42 1
12 34 65 1
13 10 35 1
14 14 35 1
15 36 37 1
16 11 37 1
17 12 37 1
18 37 41 1
19 38 39 1
20 38 40 1
21 38 46 1
22 1 39 1
23 9 39 1
24 39 43 1
25 5 40 1
26 16 40 1
27 40 44 1
28 41 42 1
29 41 43 1
30 41 44 1
31 4 43 1
32 15 43 1
33 20 44 1
34 21 44 1
35 19 45 1
36 45 47 2
37 45 49 1
38 46 47 1
39 46 48 2
40 13 47 1
41 25 48 1
42 48 50 1
43 49 50 2
44 24 50 1
45 51 52 2
46 51 53 2
47 51 55 1
48 23 54 1
49 54 55 2
50 54 59 1
51 55 58 1
52 56 57 1
53 56 59 1
54 56 62 2
55 26 57 1
56 57 58 2
57 29 58 1
58 59 61 2
59 60 64 1
60 28 61 1
61 61 63 1
62 27 62 1
63 62 64 1
64 22 63 1
65 63 64 2
66 6 65 1
67 8 65 1
68 65 66 1
69 66 67 1
70 2 67 1
71 3 67 1
72 18 67 1
@<TRIPOS>SUBSTRUCTURE
1	UNK0	1	GROUP	1 ****	UNK
