# created with PyMOL 2.5.0
@<TRIPOS>MOLECULE
MOL
38 41 1                 
SMALL
USER_CHARGES
@<TRIPOS>ATOM
1	  C1	5.371	8.091	22.217	C.3	1	UNK0	0.000	
2	  F1	4.690	9.114	22.659	 F	1	UNK0	0.000	
3	  C2	4.973	7.390	21.054	C.2	1	UNK0	0.000	
4	  C3	5.769	6.293	20.627	C.2	1	UNK0	0.000	
5	  F2	5.467	5.616	19.572	 F	1	UNK0	0.000	
6	  C4	6.910	5.933	21.356	C.2	1	UNK0	0.000	
7	  N1	7.228	6.620	22.440	N.pl3	1	UNK0	0.000	
8	  C5	6.525	7.663	22.908	C.2	1	UNK0	0.000	
9	  N2	3.852	7.772	20.361	N.pl3	1	UNK0	0.000	
10	  C6	3.990	8.581	19.169	C.3	1	UNK0	0.000	
11	  C7	2.524	7.351	20.818	C.3	1	UNK0	0.000	
12	  C8	1.507	8.439	21.074	C.2	1	UNK0	0.000	
13	  O1	0.287	8.338	20.735	O.co2	1	UNK0	0.000	
14	  O2	1.890	9.587	21.713	O.co2	1	UNK0	0.000	
15	  O3	6.942	8.278	24.008	O.3	1	UNK0	0.000	
16	  O4	8.822	9.852	22.692	O.3	1	UNK0	0.000	
17	  C9	8.206	8.399	24.411	C.2	1	UNK0	0.000	
18	 C10	8.580	7.673	25.544	C.2	1	UNK0	0.000	
19	 C11	9.900	7.721	26.053	C.2	1	UNK0	0.000	
20	 C12	10.852	8.540	25.372	C.2	1	UNK0	0.000	
21	 C13	10.480	9.264	24.227	C.2	1	UNK0	0.000	
22	 C14	9.152	9.192	23.741	C.2	1	UNK0	0.000	
23	 C15	10.227	6.987	27.188	C.2	1	UNK0	0.000	
24	  N3	11.478	6.523	27.395	N.pl3	1	UNK0	0.000	
25	  N4	9.358	6.725	28.155	N.2	1	UNK0	0.000	
26	  O5	7.641	4.932	20.941	O.3	1	UNK0	0.000	
27	 C16	7.424	3.633	20.765	C.2	1	UNK0	0.000	
28	 C17	6.456	3.045	21.624	C.2	1	UNK0	0.000	
29	 C18	6.159	1.673	21.524	C.2	1	UNK0	0.000	
30	 C19	6.835	0.896	20.570	C.2	1	UNK0	0.000	
31	 C20	7.804	1.482	19.706	C.2	1	UNK0	0.000	
32	 C21	8.084	2.845	19.821	C.2	1	UNK0	0.000	
33	 C22	8.464	0.719	18.746	C.2	1	UNK0	0.000	
34	  N5	7.995	0.156	17.620	N.pl3	1	UNK0	0.000	
35	 C23	6.672	0.198	17.106	C.3	1	UNK0	0.000	
36	  N6	9.773	0.457	18.884	N.2	1	UNK0	0.000	
37	 C24	9.032	-0.533	16.938	C.2	1	UNK0	0.000	
38	 C25	10.274	-0.323	17.829	C.2	1	UNK0	0.000	
@<TRIPOS>BOND
1 1 2 1
2 1 3 1
3 1 8 1
4 3 4 2
5 3 9 1
6 4 5 1
7 4 6 1
8 6 7 2
9 6 26 1
10 7 8 2
11 8 15 1
12 9 10 1
13 9 11 1
14 11 12 1
15 12 13 2
16 12 14 1
17 15 17 1
18 16 22 1
19 17 18 1
20 17 22 2
21 18 19 2
22 19 20 1
23 19 23 1
24 20 21 2
25 21 22 1
26 23 24 1
27 23 25 2
28 26 27 1
29 27 28 1
30 27 32 2
31 28 29 2
32 29 30 1
33 30 31 2
34 31 32 1
35 31 33 1
36 33 34 1
37 33 36 2
38 34 35 1
39 34 37 1
40 36 38 1
41 37 38 2
@<TRIPOS>SUBSTRUCTURE
1	UNK0	1	GROUP	1 ****	UNK
