# created with PyMOL 2.5.0
@<TRIPOS>MOLECULE
MOL
31 35 1                 
SMALL
USER_CHARGES
@<TRIPOS>ATOM
1	  N1	5.463	2.943	19.858	N.pl3	1	UNK0	0.000	
2	  C1	5.627	4.254	19.574	C.2	1	UNK0	0.000	
3	  C2	5.728	5.017	20.883	C.3	1	UNK0	0.000	
4	  C3	5.160	4.023	21.903	C.3	1	UNK0	0.000	
5	  C4	5.423	2.659	21.296	C.3	1	UNK0	0.000	
6	  O1	5.692	4.769	18.464	O.2	1	UNK0	0.000	
7	  N2	4.956	6.238	20.829	N.3	1	UNK0	0.000	
8	  S1	5.819	7.736	20.679	S.o2	1	UNK0	0.000	
9	  O2	4.723	8.674	20.789	O.2	1	UNK0	0.000	
10	  O3	6.539	7.598	19.440	O.2	1	UNK0	0.000	
11	  C5	8.279	7.891	24.113	C.2	1	UNK0	0.000	
12	  C6	8.916	7.813	25.344	C.2	1	UNK0	0.000	
13	  C7	10.171	8.441	25.570	C.2	1	UNK0	0.000	
14	  C8	10.768	9.162	24.507	C.2	1	UNK0	0.000	
15	  N3	10.158	9.248	23.289	N.2	1	UNK0	0.000	
16	  C9	8.937	8.637	23.069	C.2	1	UNK0	0.000	
17	 C10	8.126	8.610	21.851	C.2	1	UNK0	0.000	
18	 C11	6.937	7.882	22.017	C.2	1	UNK0	0.000	
19	  S2	6.803	7.240	23.604	S.3	1	UNK0	0.000	
20	 C12	5.344	1.867	18.859	C.3	1	UNK0	0.000	
21	 C13	7.835	1.481	19.389	C.2	1	UNK0	0.000	
22	 C14	9.066	0.832	19.115	C.2	1	UNK0	0.000	
23	 C15	9.161	-0.138	18.062	C.2	1	UNK0	0.000	
24	 C16	7.999	-0.481	17.247	C.2	1	UNK0	0.000	
25	 C17	6.764	0.148	17.500	C.2	1	UNK0	0.000	
26	 C18	6.662	1.185	18.626	C.2	1	UNK0	0.000	
27	 C19	10.408	-0.775	17.799	C.2	1	UNK0	0.000	
28	 C20	10.452	-1.716	16.752	C.2	1	UNK0	0.000	
29	  N4	9.361	-2.045	15.981	N.2	1	UNK0	0.000	
30	 C21	8.145	-1.445	16.214	C.2	1	UNK0	0.000	
31	  N5	7.133	-1.824	15.415	N.pl3	1	UNK0	0.000	
@<TRIPOS>BOND
1 1 2 1
2 1 5 1
3 1 20 1
4 2 3 1
5 2 6 2
6 3 4 1
7 3 7 1
8 4 5 1
9 7 8 1
10 8 9 2
11 8 10 2
12 8 18 1
13 11 12 1
14 11 16 2
15 11 19 1
16 12 13 2
17 13 14 1
18 14 15 2
19 15 16 1
20 16 17 1
21 17 18 2
22 18 19 1
23 20 26 1
24 21 22 2
25 21 26 1
26 22 23 1
27 23 24 1
28 23 27 2
29 24 25 1
30 24 30 2
31 25 26 2
32 27 28 1
33 28 29 2
34 29 30 1
35 30 31 1
@<TRIPOS>SUBSTRUCTURE
1	UNK0	1	GROUP	1 ****	UNK
