# created with PyMOL 2.5.0
@<TRIPOS>MOLECULE
MOL
46 50 1                 
SMALL
USER_CHARGES
@<TRIPOS>ATOM
1	 H12	6.764	8.976	21.291	 H	1	UNK0	0.000	
2	 H09	11.243	-0.145	17.829	 H	1	UNK0	0.000	
3	 H04	3.822	7.399	22.877	 H	1	UNK0	0.000	
4	 H10	8.310	2.294	20.943	 H	1	UNK0	0.000	
5	 H15	12.150	7.780	25.725	 H	1	UNK0	0.000	
6	 H11	5.671	9.365	22.612	 H	1	UNK0	0.000	
7	 H13	11.556	9.623	24.139	 H	1	UNK0	0.000	
8	 H17	9.196	9.779	22.311	 H	1	UNK0	0.000	
9	 H05	5.028	7.185	24.113	 H	1	UNK0	0.000	
10	 H14	11.419	9.255	26.599	 H	1	UNK0	0.000	
11	 H03	3.672	5.061	23.006	 H	1	UNK0	0.000	
12	 H02	5.247	4.882	23.722	 H	1	UNK0	0.000	
13	 H01	4.522	5.056	20.762	 H	1	UNK0	0.000	
14	 H16	8.496	6.690	26.873	 H	1	UNK0	0.000	
15	 H08	9.679	-1.197	16.150	 H	1	UNK0	0.000	
16	 H07	7.172	-0.824	16.422	 H	1	UNK0	0.000	
17	 H06	6.836	4.028	20.990	 H	1	UNK0	0.000	
18	  N1	5.831	7.302	22.164	N.pl3	1	UNK0	0.000	
19	  C1	6.164	6.344	21.267	C.2	1	UNK0	0.000	
20	  C2	5.276	5.155	21.543	C.3	1	UNK0	0.000	
21	  C3	4.702	5.410	22.940	C.3	1	UNK0	0.000	
22	  C4	4.773	6.909	23.090	C.3	1	UNK0	0.000	
23	  O1	7.014	6.427	20.388	O.2	1	UNK0	0.000	
24	  N2	6.020	3.902	21.573	N.3	1	UNK0	0.000	
25	  S1	5.287	2.528	21.079	S.o2	1	UNK0	0.000	
26	  O2	4.132	3.096	20.456	O.2	1	UNK0	0.000	
27	  O3	5.156	1.731	22.267	O.2	1	UNK0	0.000	
28	  C5	7.415	0.414	18.208	C.2	1	UNK0	0.000	
29	  C6	7.878	-0.382	17.125	C.2	1	UNK0	0.000	
30	  C7	9.288	-0.595	16.970	C.2	1	UNK0	0.000	
31	  C8	10.168	0.009	17.927	C.2	1	UNK0	0.000	
32	  N3	9.694	0.776	18.964	N.2	1	UNK0	0.000	
33	  C9	8.319	0.984	19.108	C.2	1	UNK0	0.000	
34	 C10	7.763	1.774	20.157	C.2	1	UNK0	0.000	
35	 C11	6.352	1.750	19.975	C.2	1	UNK0	0.000	
36	  S2	5.842	0.825	18.628	S.3	1	UNK0	0.000	
37	 C12	6.410	8.643	22.266	C.3	1	UNK0	0.000	
38	 C13	8.660	7.881	25.038	C.2	1	UNK0	0.000	
39	 C14	9.550	8.728	24.257	C.2	1	UNK0	0.000	
40	 C15	10.876	8.991	24.711	C.2	1	UNK0	0.000	
41	 C16	11.278	8.396	25.944	C.3	1	UNK0	0.000	
42	  N4	10.406	7.608	26.648	N.2	1	UNK0	0.000	
43	 C17	9.136	7.326	26.262	C.2	1	UNK0	0.000	
44	 C18	8.840	9.137	23.117	C.2	1	UNK0	0.000	
45	 C19	7.569	8.541	23.237	C.2	1	UNK0	0.000	
46	  N5	7.462	7.808	24.361	N.2	1	UNK0	0.000	
@<TRIPOS>BOND
1 18 19 1
2 18 22 1
3 18 37 1
4 19 20 1
5 19 23 2
6 13 20 1
7 20 21 1
8 20 24 1
9 11 21 1
10 12 21 1
11 21 22 1
12 3 22 1
13 9 22 1
14 17 24 1
15 24 25 1
16 25 26 2
17 25 27 2
18 25 35 1
19 28 29 1
20 28 33 2
21 28 36 1
22 16 29 1
23 29 30 2
24 15 30 1
25 30 31 1
26 2 31 1
27 31 32 2
28 32 33 1
29 33 34 1
30 4 34 1
31 34 35 2
32 35 36 1
33 1 37 1
34 6 37 1
35 37 45 1
36 38 39 1
37 38 43 1
38 38 46 2
39 39 40 2
40 39 44 1
41 7 40 1
42 40 41 1
43 5 41 1
44 10 41 1
45 41 42 1
46 42 43 2
47 14 43 1
48 8 44 1
49 44 45 2
50 45 46 1
@<TRIPOS>SUBSTRUCTURE
1	UNK0	1	GROUP	1 ****	UNK
