# created with PyMOL 2.5.0
@<TRIPOS>MOLECULE
MOL
39 43 1                 
SMALL
USER_CHARGES
@<TRIPOS>ATOM
1	  C1	3.802	5.389	21.872	C.3	1	UNK0	0.000	
2	  C2	4.470	5.984	23.165	C.3	1	UNK0	0.000	
3	  N1	4.935	7.396	22.979	N.3	1	UNK0	0.000	
4	  C3	5.567	6.696	20.501	C.2	1	UNK0	0.000	
5	  O1	6.264	6.940	19.515	O.2	1	UNK0	0.000	
6	  C4	5.725	7.657	21.733	C.3	1	UNK0	0.000	
7	  N2	4.639	5.589	20.600	N.pl3	1	UNK0	0.000	
8	  S1	5.362	8.310	24.382	S.o2	1	UNK0	0.000	
9	  O2	4.633	7.671	25.588	O.2	1	UNK0	0.000	
10	  O3	4.826	9.741	24.200	O.2	1	UNK0	0.000	
11	  C5	7.716	7.572	25.708	C.2	1	UNK0	0.000	
12	  C6	7.103	8.333	24.629	C.2	1	UNK0	0.000	
13	  C7	10.052	8.414	25.012	C.2	1	UNK0	0.000	
14	  C8	9.410	9.176	23.921	C.2	1	UNK0	0.000	
15	  C9	7.985	9.132	23.744	C.2	1	UNK0	0.000	
16	 C10	9.161	7.579	25.940	C.2	1	UNK0	0.000	
17	 Cl1	13.841	7.698	26.614	Cl	1	UNK0	0.000	
18	 C11	9.799	6.819	27.030	C.2	1	UNK0	0.000	
19	 C12	11.502	8.423	25.252	C.2	1	UNK0	0.000	
20	 C13	11.219	6.867	27.218	C.2	1	UNK0	0.000	
21	 C14	12.094	7.665	26.339	C.2	1	UNK0	0.000	
22	 C15	3.148	4.022	22.175	C.2	1	UNK0	0.000	
23	  O4	1.953	3.817	22.052	O.co2	1	UNK0	0.000	
24	  O5	4.056	3.085	22.626	O.3	1	UNK0	0.000	
25	 C16	3.569	1.773	23.106	C.3	1	UNK0	0.000	
26	 C17	3.878	0.679	22.068	C.3	1	UNK0	0.000	
27	 C18	4.481	4.640	19.430	C.3	1	UNK0	0.000	
28	  N3	7.050	1.095	18.635	N.pl3	1	UNK0	0.000	
29	 C19	5.800	1.375	17.815	C.3	1	UNK0	0.000	
30	 C20	7.052	1.741	20.011	C.2	1	UNK0	0.000	
31	 C21	5.726	3.831	18.923	C.2	1	UNK0	0.000	
32	 C22	5.403	2.883	17.684	C.2	1	UNK0	0.000	
33	 C23	6.741	3.279	20.032	C.2	1	UNK0	0.000	
34	 C24	10.612	-0.477	18.176	C.2	1	UNK0	0.000	
35	 C25	8.200	0.258	18.119	C.2	1	UNK0	0.000	
36	 C26	9.558	0.340	18.709	C.2	1	UNK0	0.000	
37	 C27	8.038	-0.689	16.983	C.2	1	UNK0	0.000	
38	  N4	10.425	-1.350	17.115	N.2	1	UNK0	0.000	
39	 C28	9.172	-1.455	16.534	C.2	1	UNK0	0.000	
@<TRIPOS>BOND
1 1 2 1
2 1 7 1
3 1 22 1
4 2 3 1
5 3 6 1
6 3 8 1
7 4 5 2
8 4 6 1
9 4 7 1
10 7 27 1
11 8 9 2
12 8 10 2
13 8 12 1
14 11 12 2
15 11 16 1
16 12 15 1
17 13 14 1
18 13 16 1
19 13 19 2
20 14 15 2
21 16 18 2
22 17 21 1
23 18 20 1
24 19 21 1
25 20 21 2
26 22 23 2
27 22 24 1
28 24 25 1
29 25 26 1
30 27 31 1
31 28 29 1
32 28 30 1
33 28 35 1
34 29 32 1
35 30 33 2
36 31 32 2
37 31 33 1
38 34 36 1
39 34 38 2
40 35 36 2
41 35 37 1
42 37 39 2
43 38 39 1
@<TRIPOS>SUBSTRUCTURE
1	UNK0	1	GROUP	1 ****	UNK
