# created with PyMOL 2.5.0
@<TRIPOS>MOLECULE
MOL
75 79 1                 
SMALL
USER_CHARGES
@<TRIPOS>ATOM
1	 H34	9.285	-1.636	16.314	 H	1	UNK0	0.000	
2	 H32	6.986	-0.725	16.243	 H	1	UNK0	0.000	
3	 H17	5.264	8.536	21.985	 H	1	UNK0	0.000	
4	 H33	10.266	0.942	19.636	 H	1	UNK0	0.000	
5	 H01	1.568	4.629	21.767	 H	1	UNK0	0.000	
6	 H16	8.150	7.902	21.884	 H	1	UNK0	0.000	
7	 H04	2.166	-0.380	23.007	 H	1	UNK0	0.000	
8	 H03	4.029	1.268	23.059	 H	1	UNK0	0.000	
9	 H02	3.090	1.286	24.578	 H	1	UNK0	0.000	
10	 H14	6.256	6.937	25.355	 H	1	UNK0	0.000	
11	 H08	-0.636	3.291	23.521	 H	1	UNK0	0.000	
12	 H07	1.468	3.203	24.984	 H	1	UNK0	0.000	
13	 H18	4.163	7.816	24.012	 H	1	UNK0	0.000	
14	 H06	1.452	4.561	23.826	 H	1	UNK0	0.000	
15	 H13	6.083	8.663	24.655	 H	1	UNK0	0.000	
16	 H12	4.198	6.572	20.438	 H	1	UNK0	0.000	
17	 H27	1.927	4.113	19.651	 H	1	UNK0	0.000	
18	 H11	3.336	7.996	21.150	 H	1	UNK0	0.000	
19	 H10	2.081	6.667	22.190	 H	1	UNK0	0.000	
20	 H05	1.944	0.889	21.777	 H	1	UNK0	0.000	
21	 H15	8.200	6.143	22.520	 H	1	UNK0	0.000	
22	 H26	2.651	5.764	19.650	 H	1	UNK0	0.000	
23	 H21	6.542	6.944	20.621	 H	1	UNK0	0.000	
24	 H20	6.214	5.659	21.855	 H	1	UNK0	0.000	
25	 H19	4.804	6.136	23.807	 H	1	UNK0	0.000	
26	 H22	10.570	7.292	27.520	 H	1	UNK0	0.000	
27	 H25	11.603	9.962	24.489	 H	1	UNK0	0.000	
28	 H24	9.577	9.379	23.173	 H	1	UNK0	0.000	
29	 H23	8.500	6.605	26.324	 H	1	UNK0	0.000	
30	 H09	0.390	3.005	22.124	 H	1	UNK0	0.000	
31	 H30	8.555	2.467	20.539	 H	1	UNK0	0.000	
32	 H29	5.299	0.773	17.126	 H	1	UNK0	0.000	
33	 H28	4.425	4.902	18.987	 H	1	UNK0	0.000	
34	 H31	6.229	3.365	20.460	 H	1	UNK0	0.000	
35	  C1	2.622	4.812	21.556	C.3	1	UNK0	0.000	
36	  C2	3.385	3.687	22.300	C.2	1	UNK0	0.000	
37	  O1	4.608	3.814	22.271	O.2	1	UNK0	0.000	
38	  N1	2.794	2.989	23.332	N.pl3	1	UNK0	0.000	
39	  C3	3.068	1.514	23.513	C.3	1	UNK0	0.000	
40	  C4	1.963	0.678	22.846	C.3	1	UNK0	0.000	
41	  S1	0.356	1.094	23.571	S.o2	1	UNK0	0.000	
42	  O2	0.282	0.900	25.130	O.2	1	UNK0	0.000	
43	  O3	-0.805	0.267	22.893	O.2	1	UNK0	0.000	
44	  C5	1.504	3.477	23.930	C.3	1	UNK0	0.000	
45	  C6	0.305	2.845	23.199	C.3	1	UNK0	0.000	
46	  N2	2.955	6.170	22.094	N.3	1	UNK0	0.000	
47	  C7	3.883	7.075	21.352	C.3	1	UNK0	0.000	
48	  N3	7.622	7.554	23.883	N.pl3	1	UNK0	0.000	
49	  C8	6.237	7.597	24.488	C.3	1	UNK0	0.000	
50	  C9	7.678	7.097	22.446	C.3	1	UNK0	0.000	
51	 C10	5.145	7.466	22.156	C.3	1	UNK0	0.000	
52	 C11	4.991	7.200	23.661	C.3	1	UNK0	0.000	
53	 C12	6.391	6.719	21.677	C.3	1	UNK0	0.000	
54	 C13	10.331	7.742	26.557	C.2	1	UNK0	0.000	
55	 C14	8.852	7.937	24.637	C.2	1	UNK0	0.000	
56	 C15	9.163	7.352	25.886	C.2	1	UNK0	0.000	
57	 C16	9.763	8.897	24.133	C.2	1	UNK0	0.000	
58	  N4	11.149	8.646	26.043	N.2	1	UNK0	0.000	
59	 C17	10.904	9.221	24.877	C.2	1	UNK0	0.000	
60	 C18	2.729	4.746	20.030	C.3	1	UNK0	0.000	
61	  N5	3.999	4.207	19.583	N.3	1	UNK0	0.000	
62	  S2	3.999	2.742	18.726	S.o2	1	UNK0	0.000	
63	  O4	3.514	2.951	17.238	O.2	1	UNK0	0.000	
64	  O5	2.990	1.767	19.467	O.2	1	UNK0	0.000	
65	 C19	6.015	1.134	17.865	C.2	1	UNK0	0.000	
66	 C20	5.640	2.112	18.784	C.2	1	UNK0	0.000	
67	 C21	8.254	1.111	18.886	C.2	1	UNK0	0.000	
68	 C22	7.851	2.094	19.795	C.2	1	UNK0	0.000	
69	 C23	6.545	2.599	19.751	C.2	1	UNK0	0.000	
70	 C24	7.307	0.621	17.896	C.2	1	UNK0	0.000	
71	 C25	7.695	-0.359	16.986	C.2	1	UNK0	0.000	
72	 C26	9.539	0.588	18.905	C.2	1	UNK0	0.000	
73	 C27	8.982	-0.868	17.026	C.2	1	UNK0	0.000	
74	 C28	9.893	-0.401	17.974	C.2	1	UNK0	0.000	
75	 Cl1	11.506	-1.062	17.990	Cl	1	UNK0	0.000	
@<TRIPOS>BOND
1 5 35 1
2 35 36 1
3 35 46 1
4 35 60 1
5 36 37 2
6 36 38 1
7 38 39 1
8 38 44 1
9 8 39 1
10 9 39 1
11 39 40 1
12 7 40 1
13 20 40 1
14 40 41 1
15 41 42 2
16 41 43 2
17 41 45 1
18 12 44 1
19 14 44 1
20 44 45 1
21 11 45 1
22 30 45 1
23 19 46 1
24 46 47 1
25 16 47 1
26 18 47 1
27 47 51 1
28 48 49 1
29 48 50 1
30 48 55 1
31 10 49 1
32 15 49 1
33 49 52 1
34 6 50 1
35 21 50 1
36 50 53 1
37 3 51 1
38 51 52 1
39 51 53 1
40 13 52 1
41 25 52 1
42 23 53 1
43 24 53 1
44 26 54 1
45 54 56 1
46 54 58 2
47 55 56 2
48 55 57 1
49 29 56 1
50 28 57 1
51 57 59 2
52 58 59 1
53 27 59 1
54 17 60 1
55 22 60 1
56 60 61 1
57 33 61 1
58 61 62 1
59 62 63 2
60 62 64 2
61 62 66 1
62 32 65 1
63 65 66 2
64 65 70 1
65 66 69 1
66 67 68 1
67 67 70 1
68 67 72 2
69 31 68 1
70 68 69 2
71 34 69 1
72 70 71 2
73 2 71 1
74 71 73 1
75 4 72 1
76 72 74 1
77 1 73 1
78 73 74 2
79 74 75 1
@<TRIPOS>SUBSTRUCTURE
1	UNK0	1	GROUP	1 ****	UNK
