# created with PyMOL 2.5.0
@<TRIPOS>MOLECULE
MOL
66 70 1                 
SMALL
USER_CHARGES
@<TRIPOS>ATOM
1	 H19	7.637	3.173	19.612	 H	1	UNK0	0.000	
2	 H04	4.281	6.348	23.909	 H	1	UNK0	0.000	
3	 H18	3.249	2.719	21.501	 H	1	UNK0	0.000	
4	 H22	6.400	2.032	21.902	 H	1	UNK0	0.000	
5	 H26	6.898	-0.532	16.456	 H	1	UNK0	0.000	
6	 H23	3.756	1.495	18.133	 H	1	UNK0	0.000	
7	 H27	8.579	-2.207	15.633	 H	1	UNK0	0.000	
8	 H25	9.992	0.921	19.304	 H	1	UNK0	0.000	
9	 H05	5.948	5.542	24.067	 H	1	UNK0	0.000	
10	 H09	8.787	6.037	27.362	 H	1	UNK0	0.000	
11	 H03	5.726	7.598	20.514	 H	1	UNK0	0.000	
12	 H02	4.084	7.276	21.188	 H	1	UNK0	0.000	
13	 H13	2.161	5.083	19.608	 H	1	UNK0	0.000	
14	 H01	6.114	5.093	20.418	 H	1	UNK0	0.000	
15	 H08	8.601	9.835	22.551	 H	1	UNK0	0.000	
16	 H07	10.897	9.804	23.548	 H	1	UNK0	0.000	
17	 H24	11.535	-0.817	18.366	 H	1	UNK0	0.000	
18	 H06	7.152	6.943	25.543	 H	1	UNK0	0.000	
19	 H12	1.503	6.460	18.682	 H	1	UNK0	0.000	
20	 H11	11.075	6.015	28.377	 H	1	UNK0	0.000	
21	 H10	12.546	8.897	25.390	 H	1	UNK0	0.000	
22	 H21	6.054	2.148	16.727	 H	1	UNK0	0.000	
23	 H16	1.660	3.876	17.726	 H	1	UNK0	0.000	
24	 H15	3.161	4.584	17.081	 H	1	UNK0	0.000	
25	 H14	1.590	5.328	16.699	 H	1	UNK0	0.000	
26	 H17	3.361	3.568	19.854	 H	1	UNK0	0.000	
27	 H20	8.338	1.659	20.352	 H	1	UNK0	0.000	
28	  C1	5.107	5.507	20.468	C.3	1	UNK0	0.000	
29	  C2	5.117	6.934	21.128	C.3	1	UNK0	0.000	
30	  N1	5.671	6.925	22.520	N.3	1	UNK0	0.000	
31	  C3	4.500	4.563	22.803	C.2	1	UNK0	0.000	
32	  O1	4.040	3.737	23.591	O.2	1	UNK0	0.000	
33	  C4	5.127	5.862	23.424	C.3	1	UNK0	0.000	
34	  N2	4.484	4.423	21.361	N.pl3	1	UNK0	0.000	
35	  S1	6.082	8.437	23.248	S.o2	1	UNK0	0.000	
36	  O2	4.998	8.749	24.307	O.2	1	UNK0	0.000	
37	  O3	6.017	9.523	22.159	O.2	1	UNK0	0.000	
38	  C5	7.957	7.549	25.129	C.2	1	UNK0	0.000	
39	  C6	7.684	8.388	23.971	C.2	1	UNK0	0.000	
40	  C7	10.409	8.348	25.164	C.2	1	UNK0	0.000	
41	  C8	10.111	9.190	23.987	C.2	1	UNK0	0.000	
42	  C9	8.793	9.204	23.418	C.2	1	UNK0	0.000	
43	 C10	9.280	7.494	25.753	C.2	1	UNK0	0.000	
44	 Cl1	13.585	7.416	27.710	Cl	1	UNK0	0.000	
45	 C11	9.574	6.655	26.929	C.2	1	UNK0	0.000	
46	 C12	11.734	8.295	25.799	C.2	1	UNK0	0.000	
47	 C13	10.885	6.643	27.507	C.2	1	UNK0	0.000	
48	 C14	11.985	7.458	26.958	C.2	1	UNK0	0.000	
49	 C15	4.736	5.599	18.972	C.2	1	UNK0	0.000	
50	  O4	5.398	5.077	18.091	O.co2	1	UNK0	0.000	
51	  O5	3.604	6.358	18.749	O.3	1	UNK0	0.000	
52	 C16	2.281	5.697	18.715	C.3	1	UNK0	0.000	
53	 C17	2.165	4.806	17.464	C.3	1	UNK0	0.000	
54	 C18	3.872	3.185	20.738	C.3	1	UNK0	0.000	
55	  N3	7.295	1.415	18.513	N.pl3	1	UNK0	0.000	
56	 C19	7.488	2.119	19.848	C.3	1	UNK0	0.000	
57	 C20	6.036	1.825	17.768	C.2	1	UNK0	0.000	
58	 C21	4.812	2.067	20.167	C.2	1	UNK0	0.000	
59	 C22	6.265	2.067	20.822	C.2	1	UNK0	0.000	
60	 C23	4.708	1.751	18.600	C.2	1	UNK0	0.000	
61	 C24	10.525	-0.737	17.964	C.2	1	UNK0	0.000	
62	 C25	8.266	0.383	17.982	C.2	1	UNK0	0.000	
63	 C26	9.646	0.260	18.509	C.2	1	UNK0	0.000	
64	 C27	7.895	-0.563	16.895	C.2	1	UNK0	0.000	
65	  N4	10.145	-1.603	16.950	N.2	1	UNK0	0.000	
66	 C28	8.865	-1.520	16.429	C.2	1	UNK0	0.000	
@<TRIPOS>BOND
1 14 28 1
2 28 29 1
3 28 34 1
4 28 49 1
5 11 29 1
6 12 29 1
7 29 30 1
8 30 33 1
9 30 35 1
10 31 32 2
11 31 33 1
12 31 34 1
13 2 33 1
14 9 33 1
15 34 54 1
16 35 36 2
17 35 37 2
18 35 39 1
19 18 38 1
20 38 39 2
21 38 43 1
22 39 42 1
23 40 41 1
24 40 43 1
25 40 46 2
26 16 41 1
27 41 42 2
28 15 42 1
29 43 45 2
30 44 48 1
31 10 45 1
32 45 47 1
33 21 46 1
34 46 48 1
35 20 47 1
36 47 48 2
37 49 50 2
38 49 51 1
39 51 52 1
40 13 52 1
41 19 52 1
42 52 53 1
43 23 53 1
44 24 53 1
45 25 53 1
46 3 54 1
47 26 54 1
48 54 58 1
49 55 56 1
50 55 57 1
51 55 62 1
52 1 56 1
53 27 56 1
54 56 59 1
55 22 57 1
56 57 60 2
57 58 59 2
58 58 60 1
59 4 59 1
60 6 60 1
61 17 61 1
62 61 63 1
63 61 65 2
64 62 63 2
65 62 64 1
66 8 63 1
67 5 64 1
68 64 66 2
69 65 66 1
70 7 66 1
@<TRIPOS>SUBSTRUCTURE
1	UNK0	1	GROUP	1 ****	UNK
