# created with PyMOL 2.5.0
@<TRIPOS>MOLECULE
MOL
50 54 1                 
SMALL
USER_CHARGES
@<TRIPOS>ATOM
1	 H10	7.220	1.333	21.352	 H	1	UNK0	0.000	
2	 H11	5.063	7.049	24.309	 H	1	UNK0	0.000	
3	 H15	7.229	6.577	25.510	 H	1	UNK0	0.000	
4	 H16	11.262	10.211	24.036	 H	1	UNK0	0.000	
5	 H17	12.473	9.267	25.995	 H	1	UNK0	0.000	
6	 H04	7.617	6.005	21.673	 H	1	UNK0	0.000	
7	 H18	8.353	6.010	26.969	 H	1	UNK0	0.000	
8	 H19	9.843	6.116	27.881	 H	1	UNK0	0.000	
9	 H05	6.511	7.009	20.793	 H	1	UNK0	0.000	
10	 H13	6.963	9.348	22.041	 H	1	UNK0	0.000	
11	 H03	6.896	4.380	20.110	 H	1	UNK0	0.000	
12	 H02	5.386	5.194	19.790	 H	1	UNK0	0.000	
13	 H14	9.231	10.223	22.605	 H	1	UNK0	0.000	
14	 H01	6.048	3.215	21.997	 H	1	UNK0	0.000	
15	 H08	9.809	-0.509	16.146	 H	1	UNK0	0.000	
16	 H07	7.314	-0.241	16.032	 H	1	UNK0	0.000	
17	 H06	3.445	3.556	21.648	 H	1	UNK0	0.000	
18	 H09	10.989	-0.032	18.311	 H	1	UNK0	0.000	
19	 H12	4.945	8.086	22.850	 H	1	UNK0	0.000	
20	  N1	5.652	6.137	22.524	N.pl3	1	UNK0	0.000	
21	  C1	4.962	4.990	22.703	C.2	1	UNK0	0.000	
22	  C2	5.390	4.003	21.631	C.3	1	UNK0	0.000	
23	  C3	6.068	4.902	20.589	C.3	1	UNK0	0.000	
24	  C4	6.570	6.093	21.381	C.3	1	UNK0	0.000	
25	  O1	4.132	4.753	23.573	O.2	1	UNK0	0.000	
26	  N2	4.246	3.308	21.084	N.3	1	UNK0	0.000	
27	  S1	4.311	1.576	21.010	S.o2	1	UNK0	0.000	
28	  O2	2.996	1.294	20.476	O.2	1	UNK0	0.000	
29	  O3	4.653	1.184	22.352	O.2	1	UNK0	0.000	
30	  C5	7.106	0.383	18.072	C.2	1	UNK0	0.000	
31	  C6	7.835	-0.031	16.965	C.2	1	UNK0	0.000	
32	  C7	9.247	-0.186	17.023	C.2	1	UNK0	0.000	
33	  C8	9.908	0.087	18.246	C.2	1	UNK0	0.000	
34	  N3	9.209	0.497	19.344	N.2	1	UNK0	0.000	
35	  C9	7.835	0.648	19.288	C.2	1	UNK0	0.000	
36	 C10	6.910	1.072	20.340	C.2	1	UNK0	0.000	
37	 C11	5.578	1.104	19.899	C.2	1	UNK0	0.000	
38	  S2	5.444	0.638	18.251	S.3	1	UNK0	0.000	
39	 C12	5.539	7.336	23.372	C.3	1	UNK0	0.000	
40	 C13	7.497	8.942	22.899	C.2	1	UNK0	0.000	
41	 C14	8.786	9.439	23.219	C.2	1	UNK0	0.000	
42	 C15	9.512	8.920	24.343	C.2	1	UNK0	0.000	
43	 C16	8.944	7.871	25.185	C.2	1	UNK0	0.000	
44	 C17	7.665	7.360	24.890	C.2	1	UNK0	0.000	
45	 C18	6.890	7.916	23.688	C.2	1	UNK0	0.000	
46	 C19	10.807	9.429	24.644	C.2	1	UNK0	0.000	
47	 C20	11.481	8.885	25.755	C.2	1	UNK0	0.000	
48	  N4	10.953	7.896	26.553	N.2	1	UNK0	0.000	
49	 C21	9.702	7.387	26.284	C.2	1	UNK0	0.000	
50	  N5	9.263	6.425	27.113	N.pl3	1	UNK0	0.000	
@<TRIPOS>BOND
1 20 21 1
2 20 24 1
3 20 39 1
4 21 22 1
5 21 25 2
6 14 22 1
7 22 23 1
8 22 26 1
9 11 23 1
10 12 23 1
11 23 24 1
12 6 24 1
13 9 24 1
14 17 26 1
15 26 27 1
16 27 28 2
17 27 29 2
18 27 37 1
19 30 31 1
20 30 35 2
21 30 38 1
22 16 31 1
23 31 32 2
24 15 32 1
25 32 33 1
26 18 33 1
27 33 34 2
28 34 35 1
29 35 36 1
30 1 36 1
31 36 37 2
32 37 38 1
33 2 39 1
34 19 39 1
35 39 45 1
36 10 40 1
37 40 41 2
38 40 45 1
39 13 41 1
40 41 42 1
41 42 43 1
42 42 46 2
43 43 44 1
44 43 49 2
45 3 44 1
46 44 45 2
47 4 46 1
48 46 47 1
49 5 47 1
50 47 48 2
51 48 49 1
52 49 50 1
53 7 50 1
54 8 50 1
@<TRIPOS>SUBSTRUCTURE
1	UNK0	1	GROUP	1 ****	UNK
