# created with PyMOL 2.5.0
@<TRIPOS>MOLECULE
MOL
33 36 1                 
SMALL
USER_CHARGES
@<TRIPOS>ATOM
1	  C1	5.974	1.102	18.813	C.3	1	UNK0	0.000	
2	  C2	7.326	2.749	20.209	C.2	1	UNK0	0.000	
3	  C3	7.471	4.000	20.795	C.2	1	UNK0	0.000	
4	  C4	5.286	3.486	19.121	C.2	1	UNK0	0.000	
5	  C5	5.434	4.738	19.704	C.2	1	UNK0	0.000	
6	  C6	6.526	4.987	20.541	C.2	1	UNK0	0.000	
7	  C7	6.226	2.495	19.383	C.2	1	UNK0	0.000	
8	  O1	6.686	6.276	21.173	O.3	1	UNK0	0.000	
9	  N1	8.884	8.409	22.963	N.3	1	UNK0	0.000	
10	  C8	7.971	7.272	22.954	C.3	1	UNK0	0.000	
11	  C9	7.898	6.870	21.500	C.3	1	UNK0	0.000	
12	 C10	8.197	8.160	20.838	C.3	1	UNK0	0.000	
13	 C11	9.140	9.012	21.649	C.3	1	UNK0	0.000	
14	 C12	9.431	8.837	24.096	C.3	1	UNK0	0.000	
15	  N2	10.013	10.023	24.130	N.3	1	UNK0	0.000	
16	 C13	9.374	8.069	25.417	C.3	1	UNK0	0.000	
17	 C14	4.543	0.604	18.605	C.2	1	UNK0	0.000	
18	  O2	4.141	0.334	17.470	O.co2	1	UNK0	0.000	
19	  O3	3.854	0.450	19.617	O.co2	1	UNK0	0.000	
20	 C15	6.685	0.982	17.471	C.3	1	UNK0	0.000	
21	 C16	8.158	-0.817	16.617	C.2	1	UNK0	0.000	
22	 C17	8.029	0.273	17.454	C.2	1	UNK0	0.000	
23	 C18	9.126	0.653	18.252	C.2	1	UNK0	0.000	
24	 C19	10.285	-0.132	18.276	C.2	1	UNK0	0.000	
25	 C20	10.363	-1.267	17.461	C.2	1	UNK0	0.000	
26	 C21	11.509	-2.062	17.451	C.2	1	UNK0	0.000	
27	 C22	11.570	-3.175	16.607	C.2	1	UNK0	0.000	
28	 C23	10.517	-3.478	15.726	C.2	1	UNK0	0.000	
29	 C24	9.373	-2.705	15.824	C.2	1	UNK0	0.000	
30	 C25	9.292	-1.592	16.619	C.2	1	UNK0	0.000	
31	 C26	10.593	-4.480	14.769	C.2	1	UNK0	0.000	
32	  N3	11.787	-4.982	14.446	N.pl3	1	UNK0	0.000	
33	  N4	9.473	-4.936	14.192	N.2	1	UNK0	0.000	
@<TRIPOS>BOND
1 1 7 1
2 1 17 1
3 1 20 1
4 2 3 1
5 2 7 2
6 3 6 2
7 4 5 2
8 4 7 1
9 5 6 1
10 6 8 1
11 8 11 1
12 9 10 1
13 9 13 1
14 9 14 1
15 10 11 1
16 11 12 1
17 12 13 1
18 14 15 1
19 14 16 1
20 17 18 1
21 17 19 2
22 20 22 1
23 21 22 2
24 21 30 1
25 22 23 1
26 23 24 2
27 24 25 1
28 25 26 2
29 25 30 1
30 26 27 1
31 27 28 2
32 28 29 1
33 28 31 1
34 29 30 2
35 31 32 1
36 31 33 2
@<TRIPOS>SUBSTRUCTURE
1	UNK0	1	GROUP	1 ****	UNK
