# created with PyMOL 2.5.0
@<TRIPOS>MOLECULE
MOL
39 43 1                 
SMALL
USER_CHARGES
@<TRIPOS>ATOM
1	  N1	8.559	6.686	20.948	N.2	1	UNK0	0.000	
2	  C1	7.961	7.932	20.712	C.2	1	UNK0	0.000	
3	  N2	6.588	8.020	20.361	N.pl3	1	UNK0	0.000	
4	  C2	6.293	6.651	20.379	C.2	1	UNK0	0.000	
5	  C3	7.486	5.861	20.736	C.2	1	UNK0	0.000	
6	  C4	5.027	5.966	20.102	C.2	1	UNK0	0.000	
7	  C5	4.970	4.546	20.178	C.2	1	UNK0	0.000	
8	  C6	6.138	3.714	20.527	C.2	1	UNK0	0.000	
9	  C7	7.415	4.402	20.816	C.2	1	UNK0	0.000	
10	  C8	5.706	9.204	20.050	C.3	1	UNK0	0.000	
11	  C9	4.828	1.340	20.938	C.3	1	UNK0	0.000	
12	 C10	6.154	1.288	21.684	C.3	1	UNK0	0.000	
13	 C11	6.044	2.104	20.386	C.3	1	UNK0	0.000	
14	 C12	6.254	1.701	18.851	C.2	1	UNK0	0.000	
15	  N3	5.414	2.080	17.912	N.2	1	UNK0	0.000	
16	  N4	7.423	0.015	17.251	N.2	1	UNK0	0.000	
17	 C13	7.526	0.901	18.385	C.2	1	UNK0	0.000	
18	 C14	8.815	1.034	19.041	C.2	1	UNK0	0.000	
19	 C15	9.943	0.280	18.547	C.2	1	UNK0	0.000	
20	 C16	9.825	-0.607	17.414	C.2	1	UNK0	0.000	
21	 C17	8.558	-0.740	16.761	C.2	1	UNK0	0.000	
22	  O1	4.189	2.886	18.182	O.3	1	UNK0	0.000	
23	 C18	3.645	3.379	16.947	C.3	1	UNK0	0.000	
24	 C19	4.715	4.196	16.189	C.2	1	UNK0	0.000	
25	  O2	5.405	5.012	16.827	O.co2	1	UNK0	0.000	
26	  O3	4.871	3.996	14.817	O.3	1	UNK0	0.000	
27	 C20	6.401	2.143	14.390	C.3	1	UNK0	0.000	
28	 C21	6.223	3.673	14.417	C.3	1	UNK0	0.000	
29	 C22	8.868	9.187	20.831	C.3	1	UNK0	0.000	
30	  N5	8.981	9.754	22.220	N.pl3	1	UNK0	0.000	
31	 C23	9.804	7.660	26.014	C.2	1	UNK0	0.000	
32	 C24	10.798	8.561	25.412	C.2	1	UNK0	0.000	
33	 C25	10.547	9.250	24.185	C.2	1	UNK0	0.000	
34	 C26	9.278	9.077	23.483	C.2	1	UNK0	0.000	
35	 C27	8.268	8.203	24.040	C.2	1	UNK0	0.000	
36	 C28	8.522	7.504	25.282	C.2	1	UNK0	0.000	
37	  N6	11.194	6.287	27.447	N.pl3	1	UNK0	0.000	
38	  N7	9.250	6.855	28.239	N.2	1	UNK0	0.000	
39	 C29	10.085	6.980	27.220	C.2	1	UNK0	0.000	
@<TRIPOS>BOND
1 1 2 2
2 1 5 1
3 2 3 1
4 2 29 1
5 3 4 1
6 3 10 1
7 4 5 1
8 4 6 2
9 5 9 2
10 6 7 1
11 7 8 2
12 8 9 1
13 8 13 1
14 11 12 1
15 11 13 1
16 12 13 1
17 13 14 1
18 14 15 2
19 14 17 1
20 15 22 1
21 16 17 1
22 16 21 2
23 17 18 2
24 18 19 1
25 19 20 2
26 20 21 1
27 22 23 1
28 23 24 1
29 24 25 2
30 24 26 1
31 26 28 1
32 27 28 1
33 29 30 1
34 30 34 1
35 31 32 1
36 31 36 2
37 31 39 1
38 32 33 2
39 33 34 1
40 34 35 2
41 35 36 1
42 37 39 1
43 38 39 2
@<TRIPOS>SUBSTRUCTURE
1	UNK0	1	GROUP	1 ****	UNK
