# created with PyMOL 2.5.0
@<TRIPOS>MOLECULE
MOL
34 36 1                 
SMALL
USER_CHARGES
@<TRIPOS>ATOM
1	  C1	5.183	4.273	22.434	C.2	1	UNK0	0.000	
2	  N1	5.435	5.619	22.292	N.pl3	1	UNK0	0.000	
3	  O1	4.396	3.847	23.287	O.2	1	UNK0	0.000	
4	  C2	7.098	3.826	20.830	C.2	1	UNK0	0.000	
5	  C3	5.924	3.377	21.503	C.2	1	UNK0	0.000	
6	  C4	5.487	2.038	21.257	C.2	1	UNK0	0.000	
7	  C5	6.206	1.192	20.369	C.2	1	UNK0	0.000	
8	  C6	7.372	1.643	19.701	C.2	1	UNK0	0.000	
9	  C7	7.801	2.973	19.950	C.2	1	UNK0	0.000	
10	  C8	7.477	0.020	17.729	C.2	1	UNK0	0.000	
11	  C9	8.139	0.742	18.753	C.2	1	UNK0	0.000	
12	 C10	9.545	0.593	18.860	C.2	1	UNK0	0.000	
13	 C11	10.278	-0.242	17.980	C.2	1	UNK0	0.000	
14	 C12	9.609	-0.960	16.960	C.2	1	UNK0	0.000	
15	 C13	8.200	-0.828	16.832	C.2	1	UNK0	0.000	
16	 C14	7.469	-1.581	15.757	C.3	1	UNK0	0.000	
17	  N2	6.665	-0.678	14.925	N.3	1	UNK0	0.000	
18	 C15	4.802	6.649	23.125	C.3	1	UNK0	0.000	
19	 C16	4.179	7.704	22.196	C.3	1	UNK0	0.000	
20	 C17	5.879	7.253	24.104	C.3	1	UNK0	0.000	
21	 C18	5.220	8.398	24.921	C.2	1	UNK0	0.000	
22	  O2	5.650	9.514	25.009	O.co2	1	UNK0	0.000	
23	  O3	3.960	8.011	25.470	O.3	1	UNK0	0.000	
24	 C19	3.047	9.017	25.933	C.3	1	UNK0	0.000	
25	 C20	7.130	7.783	23.310	C.3	1	UNK0	0.000	
26	 C21	8.719	7.391	25.314	C.2	1	UNK0	0.000	
27	 C22	9.922	7.675	26.006	C.2	1	UNK0	0.000	
28	 C23	10.824	8.635	25.472	C.2	1	UNK0	0.000	
29	 C24	10.522	9.295	24.266	C.2	1	UNK0	0.000	
30	 C25	9.324	9.005	23.583	C.2	1	UNK0	0.000	
31	 C26	8.406	8.051	24.094	C.2	1	UNK0	0.000	
32	 C27	10.241	6.993	27.266	C.2	1	UNK0	0.000	
33	  N3	9.301	6.849	28.222	N.2	1	UNK0	0.000	
34	  N4	11.471	6.503	27.475	N.pl3	1	UNK0	0.000	
@<TRIPOS>BOND
1 1 2 1
2 1 3 2
3 1 5 1
4 2 18 1
5 4 5 1
6 4 9 2
7 5 6 2
8 6 7 1
9 7 8 2
10 8 9 1
11 8 11 1
12 10 11 1
13 10 15 2
14 11 12 2
15 12 13 1
16 13 14 2
17 14 15 1
18 15 16 1
19 16 17 1
20 18 19 1
21 18 20 1
22 20 21 1
23 20 25 1
24 21 22 2
25 21 23 1
26 23 24 1
27 25 31 1
28 26 27 1
29 26 31 2
30 27 28 2
31 27 32 1
32 28 29 1
33 29 30 2
34 30 31 1
35 32 33 2
36 32 34 1
@<TRIPOS>SUBSTRUCTURE
1	UNK0	1	GROUP	1 ****	UNK
