# created with PyMOL 2.5.0
@<TRIPOS>MOLECULE
MOL
66 70 1                 
SMALL
USER_CHARGES
@<TRIPOS>ATOM
1	 H19	7.514	5.792	22.495	 H	1	UNK0	0.000	
2	 H04	3.735	4.575	17.647	 H	1	UNK0	0.000	
3	 H18	3.708	7.965	20.566	 H	1	UNK0	0.000	
4	 H22	6.916	7.618	20.401	 H	1	UNK0	0.000	
5	 H26	9.498	9.408	23.035	 H	1	UNK0	0.000	
6	 H23	4.279	8.425	24.126	 H	1	UNK0	0.000	
7	 H27	11.474	10.269	24.324	 H	1	UNK0	0.000	
8	 H25	8.693	6.655	26.436	 H	1	UNK0	0.000	
9	 H05	5.584	4.742	17.736	 H	1	UNK0	0.000	
10	 H09	7.265	-2.011	15.305	 H	1	UNK0	0.000	
11	 H03	4.240	2.444	20.869	 H	1	UNK0	0.000	
12	 H02	2.903	3.422	20.154	 H	1	UNK0	0.000	
13	 H13	2.435	3.520	24.727	 H	1	UNK0	0.000	
14	 H01	5.452	4.604	21.412	 H	1	UNK0	0.000	
15	 H08	7.098	2.348	19.615	 H	1	UNK0	0.000	
16	 H07	9.358	1.272	19.551	 H	1	UNK0	0.000	
17	 H24	10.704	7.626	27.574	 H	1	UNK0	0.000	
18	 H06	5.660	-0.244	16.354	 H	1	UNK0	0.000	
19	 H12	0.953	3.148	23.805	 H	1	UNK0	0.000	
20	 H11	9.515	-3.106	15.247	 H	1	UNK0	0.000	
21	 H10	10.976	-0.519	18.498	 H	1	UNK0	0.000	
22	 H21	6.111	6.833	25.466	 H	1	UNK0	0.000	
23	 H16	2.627	1.498	22.502	 H	1	UNK0	0.000	
24	 H15	1.818	1.001	24.009	 H	1	UNK0	0.000	
25	 H14	3.504	1.569	24.049	 H	1	UNK0	0.000	
26	 H17	3.367	6.919	22.061	 H	1	UNK0	0.000	
27	 H20	8.730	7.078	22.050	 H	1	UNK0	0.000	
28	  C1	4.378	4.591	21.227	C.3	1	UNK0	0.000	
29	  C2	3.976	3.358	20.337	C.3	1	UNK0	0.000	
30	  N1	4.663	3.355	19.006	N.3	1	UNK0	0.000	
31	  C3	4.420	5.995	19.051	C.2	1	UNK0	0.000	
32	  O1	4.372	7.030	18.385	O.2	1	UNK0	0.000	
33	  C4	4.632	4.654	18.261	C.3	1	UNK0	0.000	
34	  N2	4.280	5.936	20.491	N.pl3	1	UNK0	0.000	
35	  S1	4.613	1.909	18.061	S.o2	1	UNK0	0.000	
36	  O2	4.110	2.297	16.651	O.2	1	UNK0	0.000	
37	  O3	3.579	0.962	18.696	O.2	1	UNK0	0.000	
38	  C5	6.455	0.069	17.031	C.2	1	UNK0	0.000	
39	  C6	6.190	1.136	17.986	C.2	1	UNK0	0.000	
40	  C7	8.871	-0.150	17.905	C.2	1	UNK0	0.000	
41	  C8	8.582	0.935	18.864	C.2	1	UNK0	0.000	
42	  C9	7.284	1.550	18.896	C.2	1	UNK0	0.000	
43	 C10	7.756	-0.596	16.951	C.2	1	UNK0	0.000	
44	 Cl1	11.991	-2.697	16.801	Cl	1	UNK0	0.000	
45	 C11	8.042	-1.681	15.995	C.2	1	UNK0	0.000	
46	 C12	10.175	-0.826	17.826	C.2	1	UNK0	0.000	
47	 C13	9.332	-2.305	15.963	C.2	1	UNK0	0.000	
48	 C14	10.418	-1.893	16.872	C.2	1	UNK0	0.000	
49	 C15	3.820	4.437	22.659	C.2	1	UNK0	0.000	
50	  O4	4.488	4.649	23.656	O.co2	1	UNK0	0.000	
51	  O5	2.508	4.006	22.677	O.3	1	UNK0	0.000	
52	 C16	2.043	3.141	23.783	C.3	1	UNK0	0.000	
53	 C17	2.533	1.697	23.570	C.3	1	UNK0	0.000	
54	 C18	4.060	7.215	21.274	C.3	1	UNK0	0.000	
55	  N3	7.670	7.372	23.871	N.pl3	1	UNK0	0.000	
56	 C19	7.737	6.857	22.440	C.3	1	UNK0	0.000	
57	 C20	6.287	7.299	24.497	C.2	1	UNK0	0.000	
58	 C21	5.261	7.852	22.057	C.2	1	UNK0	0.000	
59	 C22	6.685	7.465	21.455	C.2	1	UNK0	0.000	
60	 C23	5.132	7.941	23.651	C.2	1	UNK0	0.000	
61	 C24	10.424	8.000	26.590	C.2	1	UNK0	0.000	
62	 C25	8.875	7.925	24.601	C.2	1	UNK0	0.000	
63	 C26	9.272	7.436	25.943	C.2	1	UNK0	0.000	
64	 C27	9.727	8.996	24.018	C.2	1	UNK0	0.000	
65	  N4	11.196	8.999	26.016	N.2	1	UNK0	0.000	
66	 C28	10.858	9.484	24.764	C.2	1	UNK0	0.000	
@<TRIPOS>BOND
1 14 28 1
2 28 29 1
3 28 34 1
4 28 49 1
5 11 29 1
6 12 29 1
7 29 30 1
8 30 33 1
9 30 35 1
10 31 32 2
11 31 33 1
12 31 34 1
13 2 33 1
14 9 33 1
15 34 54 1
16 35 36 2
17 35 37 2
18 35 39 1
19 18 38 1
20 38 39 2
21 38 43 1
22 39 42 1
23 40 41 1
24 40 43 1
25 40 46 2
26 16 41 1
27 41 42 2
28 15 42 1
29 43 45 2
30 44 48 1
31 10 45 1
32 45 47 1
33 21 46 1
34 46 48 1
35 20 47 1
36 47 48 2
37 49 50 2
38 49 51 1
39 51 52 1
40 13 52 1
41 19 52 1
42 52 53 1
43 23 53 1
44 24 53 1
45 25 53 1
46 3 54 1
47 26 54 1
48 54 58 1
49 55 56 1
50 55 57 1
51 55 62 1
52 1 56 1
53 27 56 1
54 56 59 1
55 22 57 1
56 57 60 2
57 58 59 2
58 58 60 1
59 4 59 1
60 6 60 1
61 17 61 1
62 61 63 1
63 61 65 2
64 62 63 2
65 62 64 1
66 8 63 1
67 5 64 1
68 64 66 2
69 65 66 1
70 7 66 1
@<TRIPOS>SUBSTRUCTURE
1	UNK0	1	GROUP	1 ****	UNK
