# created with PyMOL 2.5.0
@<TRIPOS>MOLECULE
MOL
38 43 1                 
SMALL
USER_CHARGES
@<TRIPOS>ATOM
1	  C1	4.762	4.764	22.862	C.2	1	UNK0	0.000	
2	  O1	4.482	3.805	23.577	O.2	1	UNK0	0.000	
3	  C2	5.178	6.117	23.543	C.3	1	UNK0	0.000	
4	  N1	5.502	7.265	22.654	N.3	1	UNK0	0.000	
5	  C3	5.105	5.919	20.547	C.3	1	UNK0	0.000	
6	  C4	6.063	6.918	21.332	C.3	1	UNK0	0.000	
7	  N2	4.751	4.745	21.423	N.pl3	1	UNK0	0.000	
8	  C5	4.904	3.525	20.605	C.3	1	UNK0	0.000	
9	  N3	7.396	1.349	18.756	N.pl3	1	UNK0	0.000	
10	  C6	7.751	2.036	20.100	C.3	1	UNK0	0.000	
11	  C7	6.049	1.741	18.088	C.3	1	UNK0	0.000	
12	  C8	5.993	3.932	19.558	C.3	1	UNK0	0.000	
13	  O2	5.821	5.376	19.441	O.3	1	UNK0	0.000	
14	  C9	7.470	3.569	20.032	C.3	1	UNK0	0.000	
15	 C10	5.810	3.290	18.126	C.3	1	UNK0	0.000	
16	 C11	10.554	-0.785	17.946	C.2	1	UNK0	0.000	
17	 C12	8.318	0.344	18.130	C.2	1	UNK0	0.000	
18	 C13	9.720	0.185	18.582	C.2	1	UNK0	0.000	
19	 C14	7.877	-0.542	17.026	C.2	1	UNK0	0.000	
20	  N4	10.109	-1.597	16.914	N.2	1	UNK0	0.000	
21	 C15	8.805	-1.480	16.465	C.2	1	UNK0	0.000	
22	  S1	5.986	8.803	23.143	S.o2	1	UNK0	0.000	
23	  O3	4.990	9.244	24.254	O.2	1	UNK0	0.000	
24	  O4	5.973	9.777	21.950	O.2	1	UNK0	0.000	
25	 C16	7.736	7.907	25.053	C.2	1	UNK0	0.000	
26	 C17	7.568	8.704	23.849	C.2	1	UNK0	0.000	
27	 C18	10.303	8.347	24.978	C.2	1	UNK0	0.000	
28	 C19	10.113	9.152	23.751	C.2	1	UNK0	0.000	
29	 C20	8.785	9.326	23.204	C.2	1	UNK0	0.000	
30	 C21	9.042	7.696	25.655	C.2	1	UNK0	0.000	
31	 Cl1	13.270	7.086	27.558	Cl	1	UNK0	0.000	
32	 C22	9.212	6.893	26.885	C.2	1	UNK0	0.000	
33	 C23	11.598	8.129	25.598	C.2	1	UNK0	0.000	
34	 C24	10.519	6.725	27.440	C.2	1	UNK0	0.000	
35	 C25	11.711	7.331	26.813	C.2	1	UNK0	0.000	
36	 C26	3.907	6.789	19.984	C.3	1	UNK0	0.000	
37	  O5	2.652	6.634	20.704	O.3	1	UNK0	0.000	
38	 C27	2.201	7.726	21.393	C.3	1	UNK0	0.000	
@<TRIPOS>BOND
1 1 2 2
2 1 3 1
3 1 7 1
4 3 4 1
5 4 6 1
6 4 22 1
7 5 6 1
8 5 7 1
9 5 13 1
10 5 36 1
11 7 8 1
12 8 12 1
13 9 10 1
14 9 11 1
15 9 17 1
16 10 14 1
17 11 15 1
18 12 13 1
19 12 14 1
20 12 15 1
21 16 18 2
22 16 20 1
23 17 18 1
24 17 19 2
25 19 21 1
26 20 21 2
27 22 23 2
28 22 24 2
29 22 26 1
30 25 26 2
31 25 30 1
32 26 29 1
33 27 28 1
34 27 30 1
35 27 33 2
36 28 29 2
37 30 32 2
38 31 35 1
39 32 34 1
40 33 35 1
41 34 35 2
42 36 37 1
43 37 38 1
@<TRIPOS>SUBSTRUCTURE
1	UNK0	1	GROUP	1 ****	UNK
