# created with PyMOL 2.5.0
@<TRIPOS>MOLECULE
MOL
39 43 1                 
SMALL
USER_CHARGES
@<TRIPOS>ATOM
1	  N1	8.331	6.797	20.632	N.2	1	UNK0	0.000	
2	  C1	7.650	7.896	21.174	C.2	1	UNK0	0.000	
3	  N2	6.394	7.724	21.814	N.pl3	1	UNK0	0.000	
4	  C2	6.278	6.338	21.648	C.2	1	UNK0	0.000	
5	  C3	7.451	5.794	20.938	C.2	1	UNK0	0.000	
6	  C4	5.201	5.435	22.067	C.2	1	UNK0	0.000	
7	  C5	5.303	4.046	21.778	C.2	1	UNK0	0.000	
8	  C6	6.454	3.457	21.067	C.2	1	UNK0	0.000	
9	  C7	7.547	4.363	20.650	C.2	1	UNK0	0.000	
10	  C8	5.457	8.711	22.465	C.3	1	UNK0	0.000	
11	  C9	5.173	1.036	20.926	C.3	1	UNK0	0.000	
12	 C10	6.470	0.845	21.700	C.3	1	UNK0	0.000	
13	 C11	6.395	1.910	20.593	C.3	1	UNK0	0.000	
14	 C12	6.672	1.834	19.018	C.2	1	UNK0	0.000	
15	  N3	6.010	2.581	18.160	N.2	1	UNK0	0.000	
16	  N4	7.507	0.032	17.338	N.2	1	UNK0	0.000	
17	 C13	7.811	0.920	18.434	C.2	1	UNK0	0.000	
18	 C14	9.172	0.949	18.941	C.2	1	UNK0	0.000	
19	 C15	10.169	0.093	18.343	C.2	1	UNK0	0.000	
20	 C16	9.851	-0.795	17.251	C.2	1	UNK0	0.000	
21	 C17	8.511	-0.826	16.743	C.2	1	UNK0	0.000	
22	  O1	4.936	3.535	18.559	O.3	1	UNK0	0.000	
23	 C18	4.620	4.404	17.459	C.3	1	UNK0	0.000	
24	 C19	4.313	5.826	17.980	C.2	1	UNK0	0.000	
25	  O2	3.132	6.129	18.224	O.co2	1	UNK0	0.000	
26	  O3	5.368	6.721	18.158	O.3	1	UNK0	0.000	
27	 C20	5.980	9.075	17.951	C.3	1	UNK0	0.000	
28	 C21	4.952	8.065	18.495	C.3	1	UNK0	0.000	
29	 C22	8.318	9.290	21.020	C.3	1	UNK0	0.000	
30	  N5	8.892	9.857	22.290	N.pl3	1	UNK0	0.000	
31	 C23	9.875	7.774	26.051	C.2	1	UNK0	0.000	
32	 C24	10.904	8.500	25.293	C.2	1	UNK0	0.000	
33	 C25	10.603	9.183	24.074	C.2	1	UNK0	0.000	
34	 C26	9.244	9.180	23.538	C.2	1	UNK0	0.000	
35	 C27	8.198	8.482	24.253	C.2	1	UNK0	0.000	
36	 C28	8.502	7.789	25.487	C.2	1	UNK0	0.000	
37	  N6	9.320	6.737	28.169	N.pl3	1	UNK0	0.000	
38	  N7	11.431	6.814	27.653	N.2	1	UNK0	0.000	
39	 C29	10.204	7.095	27.246	C.2	1	UNK0	0.000	
@<TRIPOS>BOND
1 1 2 2
2 1 5 1
3 2 3 1
4 2 29 1
5 3 4 1
6 3 10 1
7 4 5 1
8 4 6 2
9 5 9 2
10 6 7 1
11 7 8 2
12 8 9 1
13 8 13 1
14 11 12 1
15 11 13 1
16 12 13 1
17 13 14 1
18 14 15 2
19 14 17 1
20 15 22 1
21 16 17 1
22 16 21 2
23 17 18 2
24 18 19 1
25 19 20 2
26 20 21 1
27 22 23 1
28 23 24 1
29 24 25 2
30 24 26 1
31 26 28 1
32 27 28 1
33 29 30 1
34 30 34 1
35 31 32 1
36 31 36 2
37 31 39 1
38 32 33 2
39 33 34 1
40 34 35 2
41 35 36 1
42 37 39 1
43 38 39 2
@<TRIPOS>SUBSTRUCTURE
1	UNK0	1	GROUP	1 ****	UNK
