# created with PyMOL 2.5.0
@<TRIPOS>MOLECULE
MOL
57 61 1                 
SMALL
USER_CHARGES
@<TRIPOS>ATOM
1	 H22	4.075	1.026	19.832	 H	1	UNK0	0.000	
2	 H24	9.501	1.022	19.733	 H	1	UNK0	0.000	
3	 H23	9.913	1.051	18.002	 H	1	UNK0	0.000	
4	 H25	9.787	-0.503	18.860	 H	1	UNK0	0.000	
5	 H01	4.043	4.798	21.908	 H	1	UNK0	0.000	
6	 H13	7.550	6.626	25.904	 H	1	UNK0	0.000	
7	 H03	8.660	3.459	20.334	 H	1	UNK0	0.000	
8	 H09	7.641	10.373	22.271	 H	1	UNK0	0.000	
9	 H10	11.257	8.850	25.375	 H	1	UNK0	0.000	
10	 H02	4.633	2.403	21.609	 H	1	UNK0	0.000	
11	 H08	8.584	8.762	20.359	 H	1	UNK0	0.000	
12	 H07	6.822	9.253	20.474	 H	1	UNK0	0.000	
13	 H18	7.988	1.090	21.164	 H	1	UNK0	0.000	
14	 H06	4.511	8.446	21.030	 H	1	UNK0	0.000	
15	 H12	6.653	7.652	23.815	 H	1	UNK0	0.000	
16	 H04	3.900	7.109	22.034	 H	1	UNK0	0.000	
17	 H11	10.344	9.854	23.302	 H	1	UNK0	0.000	
18	 H14	9.758	6.488	28.904	 H	1	UNK0	0.000	
19	 H17	6.218	0.737	21.350	 H	1	UNK0	0.000	
20	 H16	11.519	6.184	27.989	 H	1	UNK0	0.000	
21	 H15	8.366	7.236	28.153	 H	1	UNK0	0.000	
22	 H05	5.026	8.301	22.728	 H	1	UNK0	0.000	
23	 H21	2.387	0.473	18.072	 H	1	UNK0	0.000	
24	 H20	3.098	-0.335	15.829	 H	1	UNK0	0.000	
25	 H19	5.521	-0.595	15.268	 H	1	UNK0	0.000	
26	  N1	8.129	6.249	20.646	N.2	1	UNK0	0.000	
27	  C1	7.212	7.247	20.998	C.2	1	UNK0	0.000	
28	  N2	5.913	6.902	21.406	N.pl3	1	UNK0	0.000	
29	  C2	6.026	5.522	21.302	C.2	1	UNK0	0.000	
30	  C3	7.343	5.138	20.849	C.2	1	UNK0	0.000	
31	  C4	5.042	4.517	21.572	C.2	1	UNK0	0.000	
32	  C5	5.378	3.170	21.399	C.2	1	UNK0	0.000	
33	  C6	6.674	2.778	20.954	C.2	1	UNK0	0.000	
34	  C7	7.668	3.757	20.675	C.2	1	UNK0	0.000	
35	  C8	4.760	7.746	21.828	C.3	1	UNK0	0.000	
36	  C9	7.656	8.720	20.930	C.3	1	UNK0	0.000	
37	  N3	7.893	9.396	22.224	N.pl3	1	UNK0	0.000	
38	 C10	9.489	7.649	25.826	C.2	1	UNK0	0.000	
39	 C11	10.253	8.580	25.047	C.2	1	UNK0	0.000	
40	 C12	9.737	9.151	23.873	C.2	1	UNK0	0.000	
41	 C13	8.439	8.821	23.424	C.2	1	UNK0	0.000	
42	 C14	7.654	7.910	24.159	C.2	1	UNK0	0.000	
43	 C15	8.167	7.329	25.344	C.2	1	UNK0	0.000	
44	  N4	9.325	6.924	28.102	N.pl3	1	UNK0	0.000	
45	  N5	11.225	6.596	27.115	N.2	1	UNK0	0.000	
46	 C16	10.010	7.086	26.994	C.2	1	UNK0	0.000	
47	 C17	6.981	1.278	20.790	C.3	1	UNK0	0.000	
48	  N6	6.905	0.787	19.366	N.pl3	1	UNK0	0.000	
49	 C18	7.903	0.431	18.427	C.2	1	UNK0	0.000	
50	  N7	7.578	-0.004	17.144	N.2	1	UNK0	0.000	
51	 C19	6.204	0.072	17.246	C.2	1	UNK0	0.000	
52	 C20	5.798	0.542	18.555	C.2	1	UNK0	0.000	
53	 C21	5.220	-0.244	16.255	C.2	1	UNK0	0.000	
54	 C22	3.854	-0.094	16.576	C.2	1	UNK0	0.000	
55	 C23	3.450	0.363	17.854	C.2	1	UNK0	0.000	
56	 C24	4.399	0.681	18.851	C.2	1	UNK0	0.000	
57	 C25	9.380	0.505	18.781	C.3	1	UNK0	0.000	
@<TRIPOS>BOND
1 26 27 2
2 26 30 1
3 27 28 1
4 27 36 1
5 28 29 1
6 28 35 1
7 29 30 1
8 29 31 2
9 30 34 2
10 5 31 1
11 31 32 1
12 10 32 1
13 32 33 2
14 33 34 1
15 33 47 1
16 7 34 1
17 14 35 1
18 16 35 1
19 22 35 1
20 11 36 1
21 12 36 1
22 36 37 1
23 8 37 1
24 37 41 1
25 38 39 1
26 38 43 2
27 38 46 1
28 9 39 1
29 39 40 2
30 17 40 1
31 40 41 1
32 41 42 2
33 15 42 1
34 42 43 1
35 6 43 1
36 18 44 1
37 21 44 1
38 44 46 1
39 20 45 1
40 45 46 2
41 13 47 1
42 19 47 1
43 47 48 1
44 48 49 1
45 48 52 1
46 49 50 2
47 49 57 1
48 50 51 1
49 51 52 1
50 51 53 2
51 52 56 2
52 25 53 1
53 53 54 1
54 24 54 1
55 54 55 2
56 23 55 1
57 55 56 1
58 1 56 1
59 2 57 1
60 3 57 1
61 4 57 1
@<TRIPOS>SUBSTRUCTURE
1	UNK0	1	GROUP	1 ****	UNK
