# created with PyMOL 2.5.0
@<TRIPOS>MOLECULE
MOL
70 74 1                 
SMALL
USER_CHARGES
@<TRIPOS>ATOM
1	 H28	11.753	-0.778	18.627	 H	1	UNK0	0.000	
2	 H30	13.078	-1.763	17.102	 H	1	UNK0	0.000	
3	 H27	10.089	0.960	19.389	 H	1	UNK0	0.000	
4	 H01	4.509	4.948	23.253	 H	1	UNK0	0.000	
5	 H13	12.009	7.236	27.531	 H	1	UNK0	0.000	
6	 H31	11.716	-4.473	15.732	 H	1	UNK0	0.000	
7	 H03	8.660	6.294	20.569	 H	1	UNK0	0.000	
8	 H26	7.162	-0.581	16.485	 H	1	UNK0	0.000	
9	 H09	9.892	9.263	21.452	 H	1	UNK0	0.000	
10	 H04	3.574	2.295	21.275	 H	1	UNK0	0.000	
11	 H07	6.672	10.004	21.258	 H	1	UNK0	0.000	
12	 H06	4.201	2.461	22.932	 H	1	UNK0	0.000	
13	 H17	1.290	6.273	23.681	 H	1	UNK0	0.000	
14	 H05	4.728	1.099	21.913	 H	1	UNK0	0.000	
15	 H12	12.398	8.822	25.603	 H	1	UNK0	0.000	
16	 H11	10.526	9.451	24.030	 H	1	UNK0	0.000	
17	 H02	5.533	7.200	23.568	 H	1	UNK0	0.000	
18	 H10	8.964	8.488	20.496	 H	1	UNK0	0.000	
19	 H16	4.466	8.357	25.539	 H	1	UNK0	0.000	
20	 H15	4.170	10.101	25.309	 H	1	UNK0	0.000	
21	 H14	9.702	6.249	27.887	 H	1	UNK0	0.000	
22	 H25	8.802	-2.304	15.716	 H	1	UNK0	0.000	
23	 H20	1.179	7.240	26.205	 H	1	UNK0	0.000	
24	 H19	1.427	5.212	25.104	 H	1	UNK0	0.000	
25	 H18	2.893	5.739	24.241	 H	1	UNK0	0.000	
26	 H21	2.945	7.273	25.984	 H	1	UNK0	0.000	
27	 H24	7.497	2.162	17.908	 H	1	UNK0	0.000	
28	 H23	7.109	0.605	20.416	 H	1	UNK0	0.000	
29	 H22	5.695	1.093	19.380	 H	1	UNK0	0.000	
30	 H08	7.546	10.589	22.384	 H	1	UNK0	0.000	
31	 H29	13.245	-3.323	16.329	 H	1	UNK0	0.000	
32	  N1	7.581	3.662	20.137	N.2	1	UNK0	0.000	
33	  C1	6.606	2.704	20.443	C.2	1	UNK0	0.000	
34	  N2	5.592	2.984	21.398	N.pl3	1	UNK0	0.000	
35	  C2	5.989	4.286	21.728	C.2	1	UNK0	0.000	
36	  C3	7.184	4.681	20.961	C.2	1	UNK0	0.000	
37	  C4	5.395	5.228	22.682	C.2	1	UNK0	0.000	
38	  C5	5.985	6.510	22.855	C.2	1	UNK0	0.000	
39	  C6	7.184	6.949	22.114	C.2	1	UNK0	0.000	
40	  C7	7.781	6.005	21.144	C.2	1	UNK0	0.000	
41	  C8	4.444	2.152	21.916	C.3	1	UNK0	0.000	
42	  C9	7.535	9.654	21.824	C.3	1	UNK0	0.000	
43	 C10	8.844	8.962	21.470	C.3	1	UNK0	0.000	
44	 C11	7.913	8.336	22.521	C.3	1	UNK0	0.000	
45	 C12	7.803	8.538	24.106	C.2	1	UNK0	0.000	
46	  N3	6.683	8.921	24.680	N.2	1	UNK0	0.000	
47	  N4	8.812	7.297	26.158	N.2	1	UNK0	0.000	
48	 C13	9.012	8.206	25.056	C.2	1	UNK0	0.000	
49	 C14	10.338	8.764	24.855	C.2	1	UNK0	0.000	
50	 C15	11.405	8.401	25.757	C.2	1	UNK0	0.000	
51	 C16	11.189	7.494	26.860	C.2	1	UNK0	0.000	
52	 C17	9.885	6.937	27.062	C.2	1	UNK0	0.000	
53	  O1	5.434	9.224	23.924	O.3	1	UNK0	0.000	
54	 C18	4.299	9.144	24.803	C.3	1	UNK0	0.000	
55	 C19	3.025	8.824	23.990	C.2	1	UNK0	0.000	
56	  O2	3.076	8.894	22.749	O.co2	1	UNK0	0.000	
57	  O3	1.860	8.471	24.672	O.3	1	UNK0	0.000	
58	 C20	1.892	6.033	24.558	C.3	1	UNK0	0.000	
59	 C21	1.984	7.271	25.470	C.3	1	UNK0	0.000	
60	 C22	6.703	1.335	19.715	C.3	1	UNK0	0.000	
61	  N5	7.570	1.336	18.485	N.pl3	1	UNK0	0.000	
62	 C23	10.434	-1.715	17.093	C.2	1	UNK0	0.000	
63	 C24	9.090	-1.611	16.507	C.2	1	UNK0	0.000	
64	 C25	8.150	-0.626	16.944	C.2	1	UNK0	0.000	
65	 C26	8.502	0.319	18.000	C.2	1	UNK0	0.000	
66	 C27	9.816	0.256	18.603	C.2	1	UNK0	0.000	
67	 C28	10.768	-0.741	18.163	C.2	1	UNK0	0.000	
68	  N6	12.659	-2.589	16.698	N.pl3	1	UNK0	0.000	
69	  N7	11.000	-3.837	16.050	N.2	1	UNK0	0.000	
70	 C29	11.337	-2.708	16.653	C.2	1	UNK0	0.000	
@<TRIPOS>BOND
1 32 33 2
2 32 36 1
3 33 34 1
4 33 60 1
5 34 35 1
6 34 41 1
7 35 36 1
8 35 37 2
9 36 40 2
10 4 37 1
11 37 38 1
12 17 38 1
13 38 39 2
14 39 40 1
15 39 44 1
16 7 40 1
17 10 41 1
18 12 41 1
19 14 41 1
20 11 42 1
21 30 42 1
22 42 43 1
23 42 44 1
24 9 43 1
25 18 43 1
26 43 44 1
27 44 45 1
28 45 46 2
29 45 48 1
30 46 53 1
31 47 48 1
32 47 52 2
33 48 49 2
34 16 49 1
35 49 50 1
36 15 50 1
37 50 51 2
38 5 51 1
39 51 52 1
40 21 52 1
41 53 54 1
42 19 54 1
43 20 54 1
44 54 55 1
45 55 56 2
46 55 57 1
47 57 59 1
48 13 58 1
49 24 58 1
50 25 58 1
51 58 59 1
52 23 59 1
53 26 59 1
54 28 60 1
55 29 60 1
56 60 61 1
57 27 61 1
58 61 65 1
59 62 63 1
60 62 67 2
61 62 70 1
62 22 63 1
63 63 64 2
64 8 64 1
65 64 65 1
66 65 66 2
67 3 66 1
68 66 67 1
69 1 67 1
70 2 68 1
71 31 68 1
72 68 70 1
73 6 69 1
74 69 70 2
@<TRIPOS>SUBSTRUCTURE
1	UNK0	1	GROUP	1 ****	UNK
