# created with PyMOL 2.5.0
@<TRIPOS>MOLECULE
MOL
31 35 1                 
SMALL
USER_CHARGES
@<TRIPOS>ATOM
1	  N1	6.343	3.592	21.480	N.pl3	1	UNK0	0.000	
2	  C1	5.251	4.282	21.878	C.2	1	UNK0	0.000	
3	  C2	5.465	5.749	21.547	C.3	1	UNK0	0.000	
4	  C3	6.980	5.831	21.324	C.3	1	UNK0	0.000	
5	  C4	7.378	4.438	20.876	C.3	1	UNK0	0.000	
6	  O1	4.245	3.831	22.412	O.2	1	UNK0	0.000	
7	  N2	5.031	6.592	22.638	N.3	1	UNK0	0.000	
8	  S1	5.548	8.248	22.636	S.o2	1	UNK0	0.000	
9	  O2	4.488	8.847	23.416	O.2	1	UNK0	0.000	
10	  O3	5.695	8.564	21.239	O.2	1	UNK0	0.000	
11	  C5	9.393	8.743	24.323	C.2	1	UNK0	0.000	
12	  C6	10.696	9.048	24.691	C.2	1	UNK0	0.000	
13	  C7	11.288	8.489	25.857	C.2	1	UNK0	0.000	
14	  C8	10.517	7.600	26.646	C.2	1	UNK0	0.000	
15	  N3	9.233	7.290	26.302	N.2	1	UNK0	0.000	
16	  C9	8.658	7.834	25.167	C.2	1	UNK0	0.000	
17	 C10	7.312	7.631	24.628	C.2	1	UNK0	0.000	
18	 C11	7.095	8.359	23.448	C.2	1	UNK0	0.000	
19	  S2	8.480	9.271	23.000	S.3	1	UNK0	0.000	
20	 C12	6.520	2.136	21.607	C.3	1	UNK0	0.000	
21	 C13	5.382	1.227	19.482	C.2	1	UNK0	0.000	
22	 C14	5.462	0.567	18.229	C.2	1	UNK0	0.000	
23	 C15	6.726	0.124	17.716	C.2	1	UNK0	0.000	
24	 C16	7.960	0.340	18.466	C.2	1	UNK0	0.000	
25	 C17	7.909	0.994	19.713	C.2	1	UNK0	0.000	
26	 C18	6.557	1.467	20.261	C.2	1	UNK0	0.000	
27	 C19	6.784	-0.541	16.458	C.2	1	UNK0	0.000	
28	 C20	8.048	-0.960	15.999	C.2	1	UNK0	0.000	
29	  N4	9.215	-0.761	16.700	N.2	1	UNK0	0.000	
30	 C21	9.186	-0.120	17.918	C.2	1	UNK0	0.000	
31	  N5	10.371	0.033	18.535	N.pl3	1	UNK0	0.000	
@<TRIPOS>BOND
1 1 2 1
2 1 5 1
3 1 20 1
4 2 3 1
5 2 6 2
6 3 4 1
7 3 7 1
8 4 5 1
9 7 8 1
10 8 9 2
11 8 10 2
12 8 18 1
13 11 12 1
14 11 16 2
15 11 19 1
16 12 13 2
17 13 14 1
18 14 15 2
19 15 16 1
20 16 17 1
21 17 18 2
22 18 19 1
23 20 26 1
24 21 22 2
25 21 26 1
26 22 23 1
27 23 24 1
28 23 27 2
29 24 25 1
30 24 30 2
31 25 26 2
32 27 28 1
33 28 29 2
34 29 30 1
35 30 31 1
@<TRIPOS>SUBSTRUCTURE
1	UNK0	1	GROUP	1 ****	UNK
