# created with PyMOL 2.5.0
@<TRIPOS>MOLECULE
MOL
61 64 1                 
SMALL
USER_CHARGES
@<TRIPOS>ATOM
1	 H12	11.692	6.004	28.235	 H	1	UNK0	0.000	
2	 H14	9.648	6.199	28.967	 H	1	UNK0	0.000	
3	 H11	11.215	9.883	23.713	 H	1	UNK0	0.000	
4	 H22	8.966	-1.084	15.999	 H	1	UNK0	0.000	
5	 H01	4.625	8.827	21.916	 H	1	UNK0	0.000	
6	 H15	5.941	3.660	22.364	 H	1	UNK0	0.000	
7	 H20	6.679	0.658	16.118	 H	1	UNK0	0.000	
8	 H17	6.616	-0.169	20.490	 H	1	UNK0	0.000	
9	 H02	5.042	8.645	18.893	 H	1	UNK0	0.000	
10	 H23	11.289	-0.690	17.677	 H	1	UNK0	0.000	
11	 H06	2.111	6.686	20.060	 H	1	UNK0	0.000	
12	 H03	3.428	8.125	18.353	 H	1	UNK0	0.000	
13	 H10	11.875	8.602	25.743	 H	1	UNK0	0.000	
14	 H19	6.041	0.785	17.775	 H	1	UNK0	0.000	
15	 H05	2.695	6.891	21.791	 H	1	UNK0	0.000	
16	 H04	3.604	9.582	19.362	 H	1	UNK0	0.000	
17	 H21	6.278	-0.816	17.033	 H	1	UNK0	0.000	
18	 H16	5.414	1.220	22.178	 H	1	UNK0	0.000	
19	 H09	7.838	7.053	26.047	 H	1	UNK0	0.000	
20	 H08	8.589	9.242	21.989	 H	1	UNK0	0.000	
21	 H07	2.061	9.397	22.639	 H	1	UNK0	0.000	
22	 H18	8.827	3.298	19.166	 H	1	UNK0	0.000	
23	 H13	12.200	6.693	26.709	 H	1	UNK0	0.000	
24	  C1	5.371	8.091	22.217	C.3	1	UNK0	0.000	
25	  F1	4.690	9.114	22.659	 F	1	UNK0	0.000	
26	  C2	4.973	7.390	21.054	C.2	1	UNK0	0.000	
27	  C3	5.769	6.293	20.627	C.2	1	UNK0	0.000	
28	  F2	5.467	5.616	19.572	 F	1	UNK0	0.000	
29	  C4	6.910	5.933	21.356	C.2	1	UNK0	0.000	
30	  N1	7.228	6.620	22.440	N.2	1	UNK0	0.000	
31	  C5	6.525	7.663	22.908	C.2	1	UNK0	0.000	
32	  N2	3.852	7.772	20.361	N.pl3	1	UNK0	0.000	
33	  C6	3.990	8.581	19.169	C.3	1	UNK0	0.000	
34	  C7	2.524	7.351	20.818	C.3	1	UNK0	0.000	
35	  C8	1.507	8.439	21.074	C.2	1	UNK0	0.000	
36	  O1	0.287	8.338	20.735	O.co2	1	UNK0	0.000	
37	  O2	1.890	9.587	21.713	O.3	1	UNK0	0.000	
38	  O3	6.942	8.278	24.008	O.3	1	UNK0	0.000	
39	  O4	8.822	9.852	22.692	O.3	1	UNK0	0.000	
40	  C9	8.206	8.399	24.411	C.2	1	UNK0	0.000	
41	 C10	8.580	7.673	25.544	C.2	1	UNK0	0.000	
42	 C11	9.900	7.721	26.053	C.2	1	UNK0	0.000	
43	 C12	10.852	8.540	25.372	C.2	1	UNK0	0.000	
44	 C13	10.480	9.264	24.227	C.2	1	UNK0	0.000	
45	 C14	9.152	9.192	23.741	C.2	1	UNK0	0.000	
46	 C15	10.227	6.987	27.188	C.2	1	UNK0	0.000	
47	  N3	11.478	6.523	27.395	N.pl3	1	UNK0	0.000	
48	  N4	9.358	6.725	28.155	N.2	1	UNK0	0.000	
49	  O5	7.641	4.932	20.941	O.3	1	UNK0	0.000	
50	 C16	7.424	3.633	20.765	C.2	1	UNK0	0.000	
51	 C17	6.456	3.045	21.624	C.2	1	UNK0	0.000	
52	 C18	6.159	1.673	21.524	C.2	1	UNK0	0.000	
53	 C19	6.835	0.896	20.570	C.2	1	UNK0	0.000	
54	 C20	7.804	1.482	19.706	C.2	1	UNK0	0.000	
55	 C21	8.084	2.845	19.821	C.2	1	UNK0	0.000	
56	 C22	8.464	0.719	18.746	C.2	1	UNK0	0.000	
57	  N5	7.995	0.156	17.620	N.pl3	1	UNK0	0.000	
58	 C23	6.672	0.198	17.106	C.3	1	UNK0	0.000	
59	  N6	9.773	0.457	18.884	N.2	1	UNK0	0.000	
60	 C24	9.032	-0.533	16.938	C.2	1	UNK0	0.000	
61	 C25	10.274	-0.323	17.829	C.2	1	UNK0	0.000	
@<TRIPOS>BOND
1 5 24 1
2 24 25 1
3 24 26 1
4 24 31 1
5 26 27 2
6 26 32 1
7 27 28 1
8 27 29 1
9 29 30 2
10 29 49 1
11 30 31 2
12 31 38 1
13 32 33 1
14 32 34 1
15 9 33 1
16 12 33 1
17 16 33 1
18 11 34 1
19 15 34 1
20 34 35 1
21 35 36 2
22 35 37 1
23 21 37 1
24 38 40 1
25 20 39 1
26 39 45 1
27 40 41 1
28 40 45 2
29 19 41 1
30 41 42 2
31 42 43 1
32 42 46 1
33 13 43 1
34 43 44 2
35 3 44 1
36 44 45 1
37 46 47 1
38 46 48 2
39 1 47 1
40 23 47 1
41 2 48 1
42 49 50 1
43 50 51 1
44 50 55 2
45 6 51 1
46 51 52 2
47 18 52 1
48 52 53 1
49 8 53 1
50 53 54 2
51 54 55 1
52 54 56 1
53 22 55 1
54 56 57 1
55 56 59 2
56 57 58 1
57 57 60 1
58 7 58 1
59 14 58 1
60 17 58 1
61 59 61 1
62 4 60 1
63 60 61 2
64 10 61 1
@<TRIPOS>SUBSTRUCTURE
1	UNK0	1	GROUP	1 ****	UNK
