# created with PyMOL 2.5.0
@<TRIPOS>MOLECULE
MOL
75 79 1                 
SMALL
USER_CHARGES
@<TRIPOS>ATOM
1	 H34	11.611	-1.227	17.896	 H	1	UNK0	0.000	
2	 H32	10.804	0.627	19.320	 H	1	UNK0	0.000	
3	 H17	5.748	5.677	22.073	 H	1	UNK0	0.000	
4	 H33	7.728	-1.565	16.038	 H	1	UNK0	0.000	
5	 H01	1.897	3.669	21.383	 H	1	UNK0	0.000	
6	 H16	6.527	6.252	24.865	 H	1	UNK0	0.000	
7	 H04	3.340	-1.351	23.022	 H	1	UNK0	0.000	
8	 H03	3.723	0.770	24.264	 H	1	UNK0	0.000	
9	 H02	2.043	0.192	24.448	 H	1	UNK0	0.000	
10	 H14	7.449	9.140	22.148	 H	1	UNK0	0.000	
11	 H08	0.181	1.045	20.598	 H	1	UNK0	0.000	
12	 H07	0.202	1.364	23.143	 H	1	UNK0	0.000	
13	 H18	6.192	7.481	20.528	 H	1	UNK0	0.000	
14	 H06	0.618	2.839	22.227	 H	1	UNK0	0.000	
15	 H13	7.958	7.369	21.826	 H	1	UNK0	0.000	
16	 H12	4.096	5.864	20.432	 H	1	UNK0	0.000	
17	 H27	3.250	2.949	19.830	 H	1	UNK0	0.000	
18	 H11	3.303	7.230	21.319	 H	1	UNK0	0.000	
19	 H10	2.007	5.685	22.017	 H	1	UNK0	0.000	
20	 H05	3.733	-0.011	21.914	 H	1	UNK0	0.000	
21	 H15	5.902	8.000	25.107	 H	1	UNK0	0.000	
22	 H26	4.078	4.532	20.070	 H	1	UNK0	0.000	
23	 H21	4.413	6.061	24.097	 H	1	UNK0	0.000	
24	 H20	4.314	7.819	23.670	 H	1	UNK0	0.000	
25	 H19	5.306	8.652	21.585	 H	1	UNK0	0.000	
26	 H22	10.339	7.294	27.398	 H	1	UNK0	0.000	
27	 H25	11.621	9.810	24.330	 H	1	UNK0	0.000	
28	 H24	9.547	9.409	23.023	 H	1	UNK0	0.000	
29	 H23	8.211	6.794	26.210	 H	1	UNK0	0.000	
30	 H09	1.905	1.380	20.596	 H	1	UNK0	0.000	
31	 H30	5.912	-0.049	16.729	 H	1	UNK0	0.000	
32	 H29	9.023	2.120	20.006	 H	1	UNK0	0.000	
33	 H28	5.138	3.009	21.896	 H	1	UNK0	0.000	
34	 H31	5.121	1.829	18.166	 H	1	UNK0	0.000	
35	  C1	2.908	3.886	21.729	C.3	1	UNK0	0.000	
36	  C2	3.129	2.948	22.944	C.2	1	UNK0	0.000	
37	  O1	3.760	3.467	23.863	O.2	1	UNK0	0.000	
38	  N1	2.259	1.912	23.210	N.pl3	1	UNK0	0.000	
39	  C3	2.776	0.600	23.752	C.3	1	UNK0	0.000	
40	  C4	2.990	-0.405	22.608	C.3	1	UNK0	0.000	
41	  S1	1.430	-0.679	21.729	S.o2	1	UNK0	0.000	
42	  O2	0.254	-1.181	22.644	O.2	1	UNK0	0.000	
43	  O3	1.621	-1.692	20.534	O.2	1	UNK0	0.000	
44	  C5	0.941	1.832	22.491	C.3	1	UNK0	0.000	
45	  C6	1.085	0.998	21.205	C.3	1	UNK0	0.000	
46	  N2	2.947	5.331	22.120	N.3	1	UNK0	0.000	
47	  C7	3.845	6.288	21.405	C.3	1	UNK0	0.000	
48	  N3	7.425	7.791	23.758	N.pl3	1	UNK0	0.000	
49	  C8	7.263	8.074	22.281	C.3	1	UNK0	0.000	
50	  C9	6.211	7.201	24.432	C.3	1	UNK0	0.000	
51	 C10	5.159	6.590	22.162	C.3	1	UNK0	0.000	
52	 C11	5.936	7.764	21.549	C.3	1	UNK0	0.000	
53	 C12	4.917	6.911	23.637	C.3	1	UNK0	0.000	
54	 C13	10.144	7.752	26.428	C.2	1	UNK0	0.000	
55	 C14	8.687	8.063	24.506	C.2	1	UNK0	0.000	
56	 C15	8.942	7.468	25.763	C.2	1	UNK0	0.000	
57	 C16	9.686	8.924	23.989	C.2	1	UNK0	0.000	
58	  N4	11.044	8.566	25.902	N.2	1	UNK0	0.000	
59	 C17	10.854	9.146	24.729	C.2	1	UNK0	0.000	
60	 C18	3.803	3.581	20.525	C.3	1	UNK0	0.000	
61	  N5	5.029	2.901	20.898	N.3	1	UNK0	0.000	
62	  S2	6.481	3.401	20.177	S.o2	1	UNK0	0.000	
63	  O4	7.558	3.781	21.268	O.2	1	UNK0	0.000	
64	  O5	6.154	4.684	19.305	O.2	1	UNK0	0.000	
65	 C19	8.354	1.642	19.289	C.2	1	UNK0	0.000	
66	 C20	7.036	2.075	19.164	C.2	1	UNK0	0.000	
67	 C21	7.912	-0.034	17.543	C.2	1	UNK0	0.000	
68	 C22	6.594	0.419	17.439	C.2	1	UNK0	0.000	
69	 C23	6.148	1.474	18.247	C.2	1	UNK0	0.000	
70	 C24	8.813	0.596	18.494	C.2	1	UNK0	0.000	
71	 C25	10.129	0.155	18.606	C.2	1	UNK0	0.000	
72	 C26	8.385	-1.075	16.756	C.2	1	UNK0	0.000	
73	 C27	10.580	-0.883	17.809	C.2	1	UNK0	0.000	
74	 C28	9.719	-1.491	16.895	C.2	1	UNK0	0.000	
75	 Cl1	10.321	-2.799	15.911	Cl	1	UNK0	0.000	
@<TRIPOS>BOND
1 5 35 1
2 35 36 1
3 35 46 1
4 35 60 1
5 36 37 2
6 36 38 1
7 38 39 1
8 38 44 1
9 8 39 1
10 9 39 1
11 39 40 1
12 7 40 1
13 20 40 1
14 40 41 1
15 41 42 2
16 41 43 2
17 41 45 1
18 12 44 1
19 14 44 1
20 44 45 1
21 11 45 1
22 30 45 1
23 19 46 1
24 46 47 1
25 16 47 1
26 18 47 1
27 47 51 1
28 48 49 1
29 48 50 1
30 48 55 1
31 10 49 1
32 15 49 1
33 49 52 1
34 6 50 1
35 21 50 1
36 50 53 1
37 3 51 1
38 51 52 1
39 51 53 1
40 13 52 1
41 25 52 1
42 23 53 1
43 24 53 1
44 26 54 1
45 54 56 1
46 54 58 2
47 55 56 2
48 55 57 1
49 29 56 1
50 28 57 1
51 57 59 2
52 58 59 1
53 27 59 1
54 17 60 1
55 22 60 1
56 60 61 1
57 33 61 1
58 61 62 1
59 62 63 2
60 62 64 2
61 62 66 1
62 32 65 1
63 65 66 2
64 65 70 1
65 66 69 1
66 67 68 1
67 67 70 1
68 67 72 2
69 31 68 1
70 68 69 2
71 34 69 1
72 70 71 2
73 2 71 1
74 71 73 1
75 4 72 1
76 72 74 1
77 1 73 1
78 73 74 2
79 74 75 1
@<TRIPOS>SUBSTRUCTURE
1	UNK0	1	GROUP	1 ****	UNK
