# created with PyMOL 2.5.0
@<TRIPOS>MOLECULE
MOL
38 41 1                 
SMALL
USER_CHARGES
@<TRIPOS>ATOM
1	  C1	5.247	4.997	20.991	C.3	1	UNK0	0.000	
2	  F1	4.481	6.033	21.203	 F	1	UNK0	0.000	
3	  C2	4.821	3.688	21.319	C.2	1	UNK0	0.000	
4	  C3	5.705	2.608	21.051	C.2	1	UNK0	0.000	
5	  F2	5.376	1.390	21.319	 F	1	UNK0	0.000	
6	  C4	6.959	2.859	20.480	C.2	1	UNK0	0.000	
7	  N1	7.307	4.104	20.202	N.pl3	1	UNK0	0.000	
8	  C5	6.530	5.175	20.430	C.2	1	UNK0	0.000	
9	  N2	3.584	3.478	21.874	N.pl3	1	UNK0	0.000	
10	  C6	2.478	3.085	21.028	C.3	1	UNK0	0.000	
11	  C7	3.387	3.638	23.318	C.3	1	UNK0	0.000	
12	  C8	2.589	2.569	24.028	C.2	1	UNK0	0.000	
13	  O1	1.458	2.791	24.562	O.co2	1	UNK0	0.000	
14	  O2	3.078	1.292	24.097	O.co2	1	UNK0	0.000	
15	  O3	6.985	6.379	20.109	O.3	1	UNK0	0.000	
16	  O4	8.697	8.334	19.113	O.3	1	UNK0	0.000	
17	  C9	7.714	7.179	20.886	C.2	1	UNK0	0.000	
18	 C10	7.606	6.989	22.266	C.2	1	UNK0	0.000	
19	 C11	8.342	7.777	23.183	C.2	1	UNK0	0.000	
20	 C12	9.211	8.781	22.657	C.2	1	UNK0	0.000	
21	 C13	9.328	8.968	21.270	C.2	1	UNK0	0.000	
22	 C14	8.580	8.161	20.379	C.2	1	UNK0	0.000	
23	 C15	8.197	7.559	24.549	C.2	1	UNK0	0.000	
24	  N3	7.210	6.780	25.041	N.pl3	1	UNK0	0.000	
25	  N4	9.027	8.061	25.452	N.2	1	UNK0	0.000	
26	  O5	7.754	1.853	20.223	O.3	1	UNK0	0.000	
27	 C16	8.032	1.143	19.135	C.2	1	UNK0	0.000	
28	 C17	9.374	0.688	19.018	C.2	1	UNK0	0.000	
29	 C18	9.772	-0.065	17.898	C.2	1	UNK0	0.000	
30	 C19	8.830	-0.356	16.899	C.2	1	UNK0	0.000	
31	 C20	7.483	0.096	17.015	C.2	1	UNK0	0.000	
32	 C21	7.108	0.842	18.133	C.2	1	UNK0	0.000	
33	 C22	6.540	-0.205	16.036	C.2	1	UNK0	0.000	
34	  N5	6.012	0.577	15.078	N.pl3	1	UNK0	0.000	
35	 C23	6.290	1.943	14.812	C.3	1	UNK0	0.000	
36	  N6	6.025	-1.442	15.959	N.2	1	UNK0	0.000	
37	 C24	5.083	-0.156	14.293	C.2	1	UNK0	0.000	
38	 C25	5.092	-1.567	14.917	C.2	1	UNK0	0.000	
@<TRIPOS>BOND
1 1 2 1
2 1 3 1
3 1 8 1
4 3 4 2
5 3 9 1
6 4 5 1
7 4 6 1
8 6 7 2
9 6 26 1
10 7 8 2
11 8 15 1
12 9 10 1
13 9 11 1
14 11 12 1
15 12 13 2
16 12 14 1
17 15 17 1
18 16 22 1
19 17 18 1
20 17 22 2
21 18 19 2
22 19 20 1
23 19 23 1
24 20 21 2
25 21 22 1
26 23 24 1
27 23 25 2
28 26 27 1
29 27 28 1
30 27 32 2
31 28 29 2
32 29 30 1
33 30 31 2
34 31 32 1
35 31 33 1
36 33 34 1
37 33 36 2
38 34 35 1
39 34 37 1
40 36 38 1
41 37 38 2
@<TRIPOS>SUBSTRUCTURE
1	UNK0	1	GROUP	1 ****	UNK
