# created with PyMOL 2.5.0
@<TRIPOS>MOLECULE
MOL
29 33 1                 
SMALL
USER_CHARGES
@<TRIPOS>ATOM
1	  N1	3.587	6.246	22.628	N.pl3	1	UNK0	0.000	
2	  C1	4.018	5.607	21.515	C.2	1	UNK0	0.000	
3	  C2	3.686	4.144	21.691	C.3	1	UNK0	0.000	
4	  C3	3.395	3.986	23.186	C.3	1	UNK0	0.000	
5	  C4	2.974	5.367	23.620	C.3	1	UNK0	0.000	
6	  O1	4.560	6.115	20.541	O.2	1	UNK0	0.000	
7	  N2	4.804	3.276	21.345	N.3	1	UNK0	0.000	
8	  S1	4.506	1.735	20.893	S.o2	1	UNK0	0.000	
9	  O2	3.266	1.933	20.208	O.2	1	UNK0	0.000	
10	  O3	4.551	0.977	22.113	O.2	1	UNK0	0.000	
11	  C5	7.228	0.352	18.078	C.2	1	UNK0	0.000	
12	  C6	7.920	-0.181	16.957	C.2	1	UNK0	0.000	
13	  C7	9.348	-0.301	17.014	C.2	1	UNK0	0.000	
14	  C8	10.011	0.123	18.211	C.2	1	UNK0	0.000	
15	  N3	9.318	0.637	19.281	N.2	1	UNK0	0.000	
16	  C9	7.927	0.756	19.219	C.2	1	UNK0	0.000	
17	 C10	7.148	1.288	20.290	C.2	1	UNK0	0.000	
18	 C11	5.792	1.247	19.861	C.2	1	UNK0	0.000	
19	  S2	5.581	0.605	18.289	S.3	1	UNK0	0.000	
20	 C12	3.673	7.682	22.899	C.3	1	UNK0	0.000	
21	 C13	7.120	8.884	22.890	C.2	1	UNK0	0.000	
22	 C14	7.165	8.090	24.110	C.2	1	UNK0	0.000	
23	 C15	8.367	8.010	24.873	C.2	1	UNK0	0.000	
24	 C16	9.500	8.732	24.390	C.3	1	UNK0	0.000	
25	  N4	9.413	9.464	23.236	N.2	1	UNK0	0.000	
26	 C17	8.296	9.574	22.473	C.2	1	UNK0	0.000	
27	 C18	5.892	7.525	24.286	C.2	1	UNK0	0.000	
28	 C19	5.129	7.982	23.192	C.2	1	UNK0	0.000	
29	  N5	5.846	8.775	22.376	N.2	1	UNK0	0.000	
@<TRIPOS>BOND
1 1 2 1
2 1 5 1
3 1 20 1
4 2 3 1
5 2 6 2
6 3 4 1
7 3 7 1
8 4 5 1
9 7 8 1
10 8 9 2
11 8 10 2
12 8 18 1
13 11 12 1
14 11 16 2
15 11 19 1
16 12 13 2
17 13 14 1
18 14 15 2
19 15 16 1
20 16 17 1
21 17 18 2
22 18 19 1
23 20 28 1
24 21 22 1
25 21 26 1
26 21 29 2
27 22 23 2
28 22 27 1
29 23 24 1
30 24 25 1
31 25 26 2
32 27 28 2
33 28 29 1
@<TRIPOS>SUBSTRUCTURE
1	UNK0	1	GROUP	1 ****	UNK
