# created with PyMOL 2.5.0
@<TRIPOS>MOLECULE
MOL
57 61 1                 
SMALL
USER_CHARGES
@<TRIPOS>ATOM
1	 H22	7.150	7.280	25.365	 H	1	UNK0	0.000	
2	 H24	9.331	9.884	20.110	 H	1	UNK0	0.000	
3	 H23	7.640	10.208	20.558	 H	1	UNK0	0.000	
4	 H25	8.112	8.593	19.976	 H	1	UNK0	0.000	
5	 H01	3.970	3.994	23.233	 H	1	UNK0	0.000	
6	 H13	8.867	-2.236	15.772	 H	1	UNK0	0.000	
7	 H03	7.742	6.344	20.818	 H	1	UNK0	0.000	
8	 H09	7.977	2.142	18.217	 H	1	UNK0	0.000	
9	 H10	12.019	-0.997	18.511	 H	1	UNK0	0.000	
10	 H02	4.397	6.414	23.605	 H	1	UNK0	0.000	
11	 H08	7.472	0.435	20.536	 H	1	UNK0	0.000	
12	 H07	6.090	0.725	19.368	 H	1	UNK0	0.000	
13	 H18	5.963	8.590	21.639	 H	1	UNK0	0.000	
14	 H06	4.414	1.464	22.946	 H	1	UNK0	0.000	
15	 H12	7.370	-0.482	16.724	 H	1	UNK0	0.000	
16	 H04	3.677	1.437	21.326	 H	1	UNK0	0.000	
17	 H11	10.514	0.738	19.438	 H	1	UNK0	0.000	
18	 H14	13.304	-3.443	16.230	 H	1	UNK0	0.000	
19	 H17	5.738	8.275	23.411	 H	1	UNK0	0.000	
20	 H16	11.724	-4.537	15.647	 H	1	UNK0	0.000	
21	 H15	13.195	-1.892	17.032	 H	1	UNK0	0.000	
22	 H05	5.061	0.380	21.690	 H	1	UNK0	0.000	
23	 H21	8.855	7.176	27.190	 H	1	UNK0	0.000	
24	 H20	11.150	8.074	26.847	 H	1	UNK0	0.000	
25	 H19	11.818	9.087	24.661	 H	1	UNK0	0.000	
26	  N1	7.360	3.564	20.282	N.2	1	UNK0	0.000	
27	  C1	6.624	2.401	20.534	C.2	1	UNK0	0.000	
28	  N2	5.547	2.427	21.436	N.pl3	1	UNK0	0.000	
29	  C2	5.611	3.767	21.792	C.2	1	UNK0	0.000	
30	  C3	6.690	4.439	21.105	C.2	1	UNK0	0.000	
31	  C4	4.782	4.495	22.706	C.2	1	UNK0	0.000	
32	  C5	5.030	5.857	22.914	C.2	1	UNK0	0.000	
33	  C6	6.090	6.531	22.242	C.2	1	UNK0	0.000	
34	  C7	6.930	5.830	21.332	C.2	1	UNK0	0.000	
35	  C8	4.612	1.355	21.879	C.3	1	UNK0	0.000	
36	  C9	7.015	1.102	19.805	C.3	1	UNK0	0.000	
37	  N3	7.956	1.241	18.672	N.pl3	1	UNK0	0.000	
38	 C10	10.582	-1.772	17.060	C.2	1	UNK0	0.000	
39	 C11	11.010	-0.896	18.112	C.2	1	UNK0	0.000	
40	 C12	10.158	0.087	18.639	C.2	1	UNK0	0.000	
41	 C13	8.844	0.240	18.145	C.2	1	UNK0	0.000	
42	 C14	8.383	-0.599	17.110	C.2	1	UNK0	0.000	
43	 C15	9.235	-1.593	16.572	C.2	1	UNK0	0.000	
44	  N4	12.746	-2.690	16.606	N.pl3	1	UNK0	0.000	
45	  N5	11.041	-3.870	15.977	N.2	1	UNK0	0.000	
46	 C16	11.436	-2.748	16.541	C.2	1	UNK0	0.000	
47	 C17	6.304	8.033	22.511	C.3	1	UNK0	0.000	
48	  N6	7.738	8.409	22.784	N.pl3	1	UNK0	0.000	
49	 C18	8.727	9.031	21.986	C.2	1	UNK0	0.000	
50	  N7	10.010	9.282	22.471	N.2	1	UNK0	0.000	
51	 C19	9.849	8.765	23.740	C.2	1	UNK0	0.000	
52	 C20	8.510	8.245	23.933	C.2	1	UNK0	0.000	
53	 C21	10.809	8.700	24.802	C.2	1	UNK0	0.000	
54	 C22	10.427	8.126	26.033	C.2	1	UNK0	0.000	
55	 C23	9.120	7.616	26.229	C.2	1	UNK0	0.000	
56	 C24	8.154	7.670	25.200	C.2	1	UNK0	0.000	
57	 C25	8.432	9.459	20.556	C.3	1	UNK0	0.000	
@<TRIPOS>BOND
1 26 27 2
2 26 30 1
3 27 28 1
4 27 36 1
5 28 29 1
6 28 35 1
7 29 30 1
8 29 31 2
9 30 34 2
10 5 31 1
11 31 32 1
12 10 32 1
13 32 33 2
14 33 34 1
15 33 47 1
16 7 34 1
17 14 35 1
18 16 35 1
19 22 35 1
20 11 36 1
21 12 36 1
22 36 37 1
23 8 37 1
24 37 41 1
25 38 39 1
26 38 43 2
27 38 46 1
28 9 39 1
29 39 40 2
30 17 40 1
31 40 41 1
32 41 42 2
33 15 42 1
34 42 43 1
35 6 43 1
36 18 44 1
37 21 44 1
38 44 46 1
39 20 45 1
40 45 46 2
41 13 47 1
42 19 47 1
43 47 48 1
44 48 49 1
45 48 52 1
46 49 50 2
47 49 57 1
48 50 51 1
49 51 52 1
50 51 53 2
51 52 56 2
52 25 53 1
53 53 54 1
54 24 54 1
55 54 55 2
56 23 55 1
57 55 56 1
58 1 56 1
59 2 57 1
60 3 57 1
61 4 57 1
@<TRIPOS>SUBSTRUCTURE
1	UNK0	1	GROUP	1 ****	UNK
