# created with PyMOL 2.5.0
@<TRIPOS>MOLECULE
MOL
29 33 1                 
SMALL
USER_CHARGES
@<TRIPOS>ATOM
1	  N1	5.831	7.302	22.164	N.pl3	1	UNK0	0.000	
2	  C1	6.164	6.344	21.267	C.2	1	UNK0	0.000	
3	  C2	5.276	5.155	21.543	C.3	1	UNK0	0.000	
4	  C3	4.702	5.410	22.940	C.3	1	UNK0	0.000	
5	  C4	4.773	6.909	23.090	C.3	1	UNK0	0.000	
6	  O1	7.014	6.427	20.388	O.2	1	UNK0	0.000	
7	  N2	6.020	3.902	21.573	N.3	1	UNK0	0.000	
8	  S1	5.287	2.528	21.079	S.o2	1	UNK0	0.000	
9	  O2	4.132	3.096	20.456	O.2	1	UNK0	0.000	
10	  O3	5.156	1.731	22.267	O.2	1	UNK0	0.000	
11	  C5	7.415	0.414	18.208	C.2	1	UNK0	0.000	
12	  C6	7.878	-0.382	17.125	C.2	1	UNK0	0.000	
13	  C7	9.288	-0.595	16.970	C.2	1	UNK0	0.000	
14	  C8	10.168	0.009	17.927	C.2	1	UNK0	0.000	
15	  N3	9.694	0.776	18.964	N.2	1	UNK0	0.000	
16	  C9	8.319	0.984	19.108	C.2	1	UNK0	0.000	
17	 C10	7.763	1.774	20.157	C.2	1	UNK0	0.000	
18	 C11	6.352	1.750	19.975	C.2	1	UNK0	0.000	
19	  S2	5.842	0.825	18.628	S.3	1	UNK0	0.000	
20	 C12	6.410	8.643	22.266	C.3	1	UNK0	0.000	
21	 C13	8.660	7.881	25.038	C.2	1	UNK0	0.000	
22	 C14	9.550	8.728	24.257	C.2	1	UNK0	0.000	
23	 C15	10.876	8.991	24.711	C.2	1	UNK0	0.000	
24	 C16	11.278	8.396	25.944	C.3	1	UNK0	0.000	
25	  N4	10.406	7.608	26.648	N.2	1	UNK0	0.000	
26	 C17	9.136	7.326	26.262	C.2	1	UNK0	0.000	
27	 C18	8.840	9.137	23.117	C.2	1	UNK0	0.000	
28	 C19	7.569	8.541	23.237	C.2	1	UNK0	0.000	
29	  N5	7.462	7.808	24.361	N.2	1	UNK0	0.000	
@<TRIPOS>BOND
1 1 2 1
2 1 5 1
3 1 20 1
4 2 3 1
5 2 6 2
6 3 4 1
7 3 7 1
8 4 5 1
9 7 8 1
10 8 9 2
11 8 10 2
12 8 18 1
13 11 12 1
14 11 16 2
15 11 19 1
16 12 13 2
17 13 14 1
18 14 15 2
19 15 16 1
20 16 17 1
21 17 18 2
22 18 19 1
23 20 28 1
24 21 22 1
25 21 26 1
26 21 29 2
27 22 23 2
28 22 27 1
29 23 24 1
30 24 25 1
31 25 26 2
32 27 28 2
33 28 29 1
@<TRIPOS>SUBSTRUCTURE
1	UNK0	1	GROUP	1 ****	UNK
