# created with PyMOL 2.5.0
@<TRIPOS>MOLECULE
MOL
50 54 1                 
SMALL
USER_CHARGES
@<TRIPOS>ATOM
1	 H10	8.412	9.100	20.920	 H	1	UNK0	0.000	
2	 H11	5.016	2.308	17.918	 H	1	UNK0	0.000	
3	 H15	5.889	-0.099	16.899	 H	1	UNK0	0.000	
4	 H16	11.296	-0.542	18.386	 H	1	UNK0	0.000	
5	 H17	11.401	-2.210	16.543	 H	1	UNK0	0.000	
6	 H04	6.335	2.191	21.668	 H	1	UNK0	0.000	
7	 H18	6.215	-1.420	15.535	 H	1	UNK0	0.000	
8	 H19	7.291	-2.514	14.694	 H	1	UNK0	0.000	
9	 H05	4.622	1.960	21.537	 H	1	UNK0	0.000	
10	 H13	7.782	2.216	20.193	 H	1	UNK0	0.000	
11	 H03	5.669	4.123	22.863	 H	1	UNK0	0.000	
12	 H02	4.101	4.191	22.099	 H	1	UNK0	0.000	
13	 H14	9.947	1.071	19.710	 H	1	UNK0	0.000	
14	 H01	6.741	5.337	21.128	 H	1	UNK0	0.000	
15	 H08	10.663	8.370	26.540	 H	1	UNK0	0.000	
16	 H07	8.444	7.258	26.154	 H	1	UNK0	0.000	
17	 H06	4.335	6.167	20.035	 H	1	UNK0	0.000	
18	 H09	11.728	9.654	24.663	 H	1	UNK0	0.000	
19	 H12	4.621	1.132	19.214	 H	1	UNK0	0.000	
20	  N1	5.463	2.943	19.858	N.pl3	1	UNK0	0.000	
21	  C1	5.627	4.254	19.574	C.2	1	UNK0	0.000	
22	  C2	5.728	5.017	20.883	C.3	1	UNK0	0.000	
23	  C3	5.160	4.023	21.903	C.3	1	UNK0	0.000	
24	  C4	5.423	2.659	21.296	C.3	1	UNK0	0.000	
25	  O1	5.692	4.769	18.464	O.2	1	UNK0	0.000	
26	  N2	4.956	6.238	20.829	N.3	1	UNK0	0.000	
27	  S1	5.819	7.736	20.679	S.o2	1	UNK0	0.000	
28	  O2	4.723	8.674	20.789	O.2	1	UNK0	0.000	
29	  O3	6.539	7.598	19.440	O.2	1	UNK0	0.000	
30	  C5	8.279	7.891	24.113	C.2	1	UNK0	0.000	
31	  C6	8.916	7.813	25.344	C.2	1	UNK0	0.000	
32	  C7	10.171	8.441	25.570	C.2	1	UNK0	0.000	
33	  C8	10.768	9.162	24.507	C.2	1	UNK0	0.000	
34	  N3	10.158	9.248	23.289	N.2	1	UNK0	0.000	
35	  C9	8.937	8.637	23.069	C.2	1	UNK0	0.000	
36	 C10	8.126	8.610	21.851	C.2	1	UNK0	0.000	
37	 C11	6.937	7.882	22.017	C.2	1	UNK0	0.000	
38	  S2	6.803	7.240	23.604	S.3	1	UNK0	0.000	
39	 C12	5.344	1.867	18.859	C.3	1	UNK0	0.000	
40	 C13	7.835	1.481	19.389	C.2	1	UNK0	0.000	
41	 C14	9.066	0.832	19.115	C.2	1	UNK0	0.000	
42	 C15	9.161	-0.138	18.062	C.2	1	UNK0	0.000	
43	 C16	7.999	-0.481	17.247	C.2	1	UNK0	0.000	
44	 C17	6.764	0.148	17.500	C.2	1	UNK0	0.000	
45	 C18	6.662	1.185	18.626	C.2	1	UNK0	0.000	
46	 C19	10.408	-0.775	17.799	C.2	1	UNK0	0.000	
47	 C20	10.452	-1.716	16.752	C.2	1	UNK0	0.000	
48	  N4	9.361	-2.045	15.981	N.2	1	UNK0	0.000	
49	 C21	8.145	-1.445	16.214	C.2	1	UNK0	0.000	
50	  N5	7.133	-1.824	15.415	N.pl3	1	UNK0	0.000	
@<TRIPOS>BOND
1 20 21 1
2 20 24 1
3 20 39 1
4 21 22 1
5 21 25 2
6 14 22 1
7 22 23 1
8 22 26 1
9 11 23 1
10 12 23 1
11 23 24 1
12 6 24 1
13 9 24 1
14 17 26 1
15 26 27 1
16 27 28 2
17 27 29 2
18 27 37 1
19 30 31 1
20 30 35 2
21 30 38 1
22 16 31 1
23 31 32 2
24 15 32 1
25 32 33 1
26 18 33 1
27 33 34 2
28 34 35 1
29 35 36 1
30 1 36 1
31 36 37 2
32 37 38 1
33 2 39 1
34 19 39 1
35 39 45 1
36 10 40 1
37 40 41 2
38 40 45 1
39 13 41 1
40 41 42 1
41 42 43 1
42 42 46 2
43 43 44 1
44 43 49 2
45 3 44 1
46 44 45 2
47 4 46 1
48 46 47 1
49 5 47 1
50 47 48 2
51 48 49 1
52 49 50 1
53 7 50 1
54 8 50 1
@<TRIPOS>SUBSTRUCTURE
1	UNK0	1	GROUP	1 ****	UNK
