# created with PyMOL 2.5.0
@<TRIPOS>MOLECULE
MOL
64 67 1                 
SMALL
USER_CHARGES
@<TRIPOS>ATOM
1	 H17	10.715	8.202	26.788	 H	1	UNK0	0.000	
2	 H02	4.272	4.197	21.130	 H	1	UNK0	0.000	
3	 H01	7.071	1.862	20.694	 H	1	UNK0	0.000	
4	 H07	9.075	9.690	22.609	 H	1	UNK0	0.000	
5	 H06	9.470	8.025	22.287	 H	1	UNK0	0.000	
6	 H05	8.897	6.018	21.082	 H	1	UNK0	0.000	
7	 H04	8.504	3.622	20.545	 H	1	UNK0	0.000	
8	 H03	4.665	6.596	21.654	 H	1	UNK0	0.000	
9	 H15	10.861	10.818	25.211	 H	1	UNK0	0.000	
10	 H10	6.286	7.521	24.482	 H	1	UNK0	0.000	
11	 H13	10.210	8.018	24.392	 H	1	UNK0	0.000	
12	 H12	8.704	6.912	25.644	 H	1	UNK0	0.000	
13	 H23	4.614	0.562	17.052	 H	1	UNK0	0.000	
14	 H11	7.873	8.350	26.021	 H	1	UNK0	0.000	
15	 H09	7.519	6.438	23.743	 H	1	UNK0	0.000	
16	 H08	6.744	9.210	22.996	 H	1	UNK0	0.000	
17	 H16	12.173	8.890	26.034	 H	1	UNK0	0.000	
18	 H19	4.019	0.039	20.727	 H	1	UNK0	0.000	
19	 H22	8.346	1.293	19.034	 H	1	UNK0	0.000	
20	 H21	4.837	2.351	18.678	 H	1	UNK0	0.000	
21	 H20	6.473	3.162	18.455	 H	1	UNK0	0.000	
22	 H31	13.251	-3.052	16.958	 H	1	UNK0	0.000	
23	 H26	10.113	-2.971	15.454	 H	1	UNK0	0.000	
24	 H25	7.703	-2.497	15.093	 H	1	UNK0	0.000	
25	 H24	5.698	-1.200	15.659	 H	1	UNK0	0.000	
26	 H27	10.279	0.114	18.399	 H	1	UNK0	0.000	
27	 H30	11.875	-3.224	15.892	 H	1	UNK0	0.000	
28	 H29	11.670	-0.634	19.022	 H	1	UNK0	0.000	
29	 H28	13.132	-1.558	18.763	 H	1	UNK0	0.000	
30	 H14	10.156	10.568	23.741	 H	1	UNK0	0.000	
31	 H18	11.552	7.313	25.492	 H	1	UNK0	0.000	
32	  C1	6.152	2.335	20.346	C.3	1	UNK0	0.000	
33	  C2	5.283	4.604	21.112	C.2	1	UNK0	0.000	
34	  C3	5.503	5.942	21.410	C.2	1	UNK0	0.000	
35	  C4	7.665	4.277	20.784	C.2	1	UNK0	0.000	
36	  C5	7.884	5.614	21.086	C.2	1	UNK0	0.000	
37	  C6	6.801	6.441	21.395	C.2	1	UNK0	0.000	
38	  C7	6.367	3.780	20.787	C.2	1	UNK0	0.000	
39	  O1	7.006	7.839	21.693	O.3	1	UNK0	0.000	
40	  N1	9.258	8.514	24.348	N.3	1	UNK0	0.000	
41	  C8	8.890	8.671	22.947	C.3	1	UNK0	0.000	
42	  C9	7.414	8.354	22.915	C.3	1	UNK0	0.000	
43	 C10	7.297	7.450	24.082	C.3	1	UNK0	0.000	
44	 C11	8.278	7.798	25.173	C.3	1	UNK0	0.000	
45	 C12	10.403	9.004	24.813	C.3	1	UNK0	0.000	
46	  N2	10.809	10.197	24.416	N.3	1	UNK0	0.000	
47	 C13	11.273	8.302	25.857	C.3	1	UNK0	0.000	
48	 C14	5.049	1.492	20.986	C.2	1	UNK0	0.000	
49	  O2	4.271	0.848	20.275	O.3	1	UNK0	0.000	
50	  O3	5.016	1.459	22.218	O.co2	1	UNK0	0.000	
51	 C15	5.914	2.309	18.841	C.3	1	UNK0	0.000	
52	 C16	7.769	0.768	18.273	C.2	1	UNK0	0.000	
53	 C17	6.447	1.113	18.071	C.2	1	UNK0	0.000	
54	 C18	5.680	0.361	17.160	C.2	1	UNK0	0.000	
55	 C19	6.281	-0.644	16.393	C.2	1	UNK0	0.000	
56	 C20	7.638	-0.929	16.577	C.2	1	UNK0	0.000	
57	 C21	8.264	-1.934	15.839	C.2	1	UNK0	0.000	
58	 C22	9.615	-2.216	16.062	C.2	1	UNK0	0.000	
59	 C23	10.343	-1.542	17.059	C.2	1	UNK0	0.000	
60	 C24	9.701	-0.505	17.713	C.2	1	UNK0	0.000	
61	 C25	8.373	-0.223	17.538	C.2	1	UNK0	0.000	
62	 C26	11.638	-1.888	17.417	C.2	1	UNK0	0.000	
63	  N3	12.192	-1.313	18.488	N.pl3	1	UNK0	0.000	
64	  N4	12.310	-2.796	16.697	N.pl3	1	UNK0	0.000	
@<TRIPOS>BOND
1 3 32 1
2 32 38 1
3 32 48 1
4 32 51 1
5 2 33 1
6 33 34 1
7 33 38 2
8 8 34 1
9 34 37 2
10 7 35 1
11 35 36 2
12 35 38 1
13 6 36 1
14 36 37 1
15 37 39 1
16 39 42 1
17 40 41 1
18 40 44 1
19 40 45 1
20 4 41 1
21 5 41 1
22 41 42 1
23 16 42 1
24 42 43 1
25 10 43 1
26 15 43 1
27 43 44 1
28 12 44 1
29 14 44 1
30 11 45 1
31 45 46 1
32 45 47 1
33 9 46 1
34 30 46 1
35 1 47 1
36 17 47 1
37 31 47 1
38 48 49 1
39 48 50 2
40 18 49 1
41 20 51 1
42 21 51 1
43 51 53 1
44 19 52 1
45 52 53 2
46 52 61 1
47 53 54 1
48 13 54 1
49 54 55 2
50 25 55 1
51 55 56 1
52 56 57 2
53 56 61 1
54 24 57 1
55 57 58 1
56 23 58 1
57 58 59 2
58 59 60 1
59 59 62 1
60 26 60 1
61 60 61 2
62 62 63 1
63 62 64 2
64 28 63 1
65 29 63 1
66 22 64 1
67 27 64 1
@<TRIPOS>SUBSTRUCTURE
1	UNK0	1	GROUP	1 ****	UNK
