# created with PyMOL 2.5.0
@<TRIPOS>MOLECULE
MOL
64 66 1                 
SMALL
USER_CHARGES
@<TRIPOS>ATOM
1	 H16	4.720	8.405	22.070	 H	1	UNK0	0.000	
2	 H15	3.121	7.933	22.694	 H	1	UNK0	0.000	
3	 H07	6.385	0.359	17.391	 H	1	UNK0	0.000	
4	 H05	8.590	3.292	19.401	 H	1	UNK0	0.000	
5	 H04	5.827	0.070	20.223	 H	1	UNK0	0.000	
6	 H03	4.579	1.536	21.808	 H	1	UNK0	0.000	
7	 H01	5.949	5.816	21.559	 H	1	UNK0	0.000	
8	 H14	3.926	6.104	23.782	 H	1	UNK0	0.000	
9	 H13	12.049	-1.723	16.516	 H	1	UNK0	0.000	
10	 H08	7.612	-1.110	15.795	 H	1	UNK0	0.000	
11	 H11	12.203	0.072	17.989	 H	1	UNK0	0.000	
12	 H10	11.723	-1.014	19.333	 H	1	UNK0	0.000	
13	 H21	2.680	9.304	24.897	 H	1	UNK0	0.000	
14	 H09	10.033	-1.652	16.184	 H	1	UNK0	0.000	
15	 H06	9.946	0.770	19.803	 H	1	UNK0	0.000	
16	 H02	7.364	4.767	20.975	 H	1	UNK0	0.000	
17	 H30	11.670	6.077	28.337	 H	1	UNK0	0.000	
18	 H17	3.798	7.109	21.269	 H	1	UNK0	0.000	
19	 H20	3.219	9.644	26.559	 H	1	UNK0	0.000	
20	 H19	2.097	8.299	26.245	 H	1	UNK0	0.000	
21	 H18	6.115	6.409	24.819	 H	1	UNK0	0.000	
22	 H29	12.143	6.649	26.754	 H	1	UNK0	0.000	
23	 H24	7.992	6.540	25.709	 H	1	UNK0	0.000	
24	 H23	7.303	6.806	22.592	 H	1	UNK0	0.000	
25	 H22	6.768	8.555	22.828	 H	1	UNK0	0.000	
26	 H25	11.628	8.892	25.972	 H	1	UNK0	0.000	
27	 H28	8.315	7.140	28.063	 H	1	UNK0	0.000	
28	 H27	8.958	9.418	22.614	 H	1	UNK0	0.000	
29	 H26	11.052	10.020	23.821	 H	1	UNK0	0.000	
30	 H12	11.393	-2.722	17.653	 H	1	UNK0	0.000	
31	  C1	5.137	4.159	22.470	C.2	1	UNK0	0.000	
32	  N1	5.336	5.510	22.301	N.pl3	1	UNK0	0.000	
33	  O1	4.399	3.718	23.359	O.2	1	UNK0	0.000	
34	  C2	7.019	3.745	20.820	C.2	1	UNK0	0.000	
35	  C3	5.872	3.275	21.522	C.2	1	UNK0	0.000	
36	  C4	5.453	1.928	21.288	C.2	1	UNK0	0.000	
37	  C5	6.166	1.094	20.384	C.2	1	UNK0	0.000	
38	  C6	7.306	1.565	19.687	C.2	1	UNK0	0.000	
39	  C7	7.716	2.904	19.923	C.2	1	UNK0	0.000	
40	  C8	9.432	0.363	18.931	C.2	1	UNK0	0.000	
41	  C9	8.066	0.677	18.721	C.2	1	UNK0	0.000	
42	 C10	7.435	0.131	17.576	C.2	1	UNK0	0.000	
43	 C11	8.129	-0.704	16.664	C.2	1	UNK0	0.000	
44	 C12	9.493	-1.012	16.882	C.2	1	UNK0	0.000	
45	 C13	10.150	-0.476	18.023	C.2	1	UNK0	0.000	
46	 C14	11.598	-0.789	18.273	C.3	1	UNK0	0.000	
47	  N2	12.033	-1.957	17.499	N.3	1	UNK0	0.000	
48	 C15	4.701	6.530	23.145	C.3	1	UNK0	0.000	
49	 C16	4.037	7.570	22.228	C.3	1	UNK0	0.000	
50	 C17	5.788	7.158	24.098	C.3	1	UNK0	0.000	
51	 C18	5.154	8.364	24.845	C.2	1	UNK0	0.000	
52	  O2	5.462	9.511	24.682	O.co2	1	UNK0	0.000	
53	  O3	4.061	7.970	25.674	O.3	1	UNK0	0.000	
54	 C19	2.948	8.858	25.855	C.3	1	UNK0	0.000	
55	 C20	7.057	7.609	23.287	C.3	1	UNK0	0.000	
56	 C21	8.658	7.297	25.296	C.2	1	UNK0	0.000	
57	 C22	9.848	7.635	25.988	C.2	1	UNK0	0.000	
58	 C23	10.712	8.625	25.447	C.2	1	UNK0	0.000	
59	 C24	10.386	9.261	24.234	C.2	1	UNK0	0.000	
60	 C25	9.202	8.919	23.553	C.2	1	UNK0	0.000	
61	 C26	8.321	7.934	24.071	C.2	1	UNK0	0.000	
62	 C27	10.190	6.977	27.254	C.2	1	UNK0	0.000	
63	  N3	9.258	6.810	28.212	N.2	1	UNK0	0.000	
64	  N4	11.437	6.531	27.466	N.pl3	1	UNK0	0.000	
@<TRIPOS>BOND
1 31 32 1
2 31 33 2
3 31 35 1
4 7 32 1
5 32 48 1
6 16 34 1
7 34 35 1
8 34 39 2
9 35 36 2
10 6 36 1
11 36 37 1
12 5 37 1
13 37 38 2
14 38 39 1
15 38 41 1
16 4 39 1
17 15 40 1
18 40 41 1
19 40 45 2
20 41 42 2
21 3 42 1
22 42 43 1
23 10 43 1
24 43 44 2
25 14 44 1
26 44 45 1
27 45 46 1
28 11 46 1
29 12 46 1
30 46 47 1
31 9 47 1
32 30 47 1
33 8 48 1
34 48 49 1
35 48 50 1
36 1 49 1
37 2 49 1
38 18 49 1
39 21 50 1
40 50 51 1
41 50 55 1
42 51 52 2
43 51 53 1
44 53 54 1
45 13 54 1
46 19 54 1
47 20 54 1
48 24 55 1
49 25 55 1
50 55 61 1
51 23 56 1
52 56 57 1
53 56 61 2
54 57 58 2
55 57 62 1
56 26 58 1
57 58 59 1
58 29 59 1
59 59 60 2
60 28 60 1
61 60 61 1
62 62 63 2
63 62 64 1
64 27 63 1
65 17 64 1
66 22 64 1
@<TRIPOS>SUBSTRUCTURE
1	UNK0	1	GROUP	1 ****	UNK
