# created with PyMOL 2.5.0
@<TRIPOS>MOLECULE
MOL
41 45 1                 
SMALL
USER_CHARGES
@<TRIPOS>ATOM
1	  C1	2.622	4.812	21.556	C.3	1	UNK0	0.000	
2	  C2	3.385	3.687	22.300	C.2	1	UNK0	0.000	
3	  O1	4.608	3.814	22.271	O.2	1	UNK0	0.000	
4	  N1	2.794	2.989	23.332	N.pl3	1	UNK0	0.000	
5	  C3	3.068	1.514	23.513	C.3	1	UNK0	0.000	
6	  C4	1.963	0.678	22.846	C.3	1	UNK0	0.000	
7	  S1	0.356	1.094	23.571	S.o2	1	UNK0	0.000	
8	  O2	0.282	0.900	25.130	O.2	1	UNK0	0.000	
9	  O3	-0.805	0.267	22.893	O.2	1	UNK0	0.000	
10	  C5	1.504	3.477	23.930	C.3	1	UNK0	0.000	
11	  C6	0.305	2.845	23.199	C.3	1	UNK0	0.000	
12	  N2	2.955	6.170	22.094	N.3	1	UNK0	0.000	
13	  C7	3.883	7.075	21.352	C.3	1	UNK0	0.000	
14	  N3	7.622	7.554	23.883	N.pl3	1	UNK0	0.000	
15	  C8	6.237	7.597	24.488	C.3	1	UNK0	0.000	
16	  C9	7.678	7.097	22.446	C.3	1	UNK0	0.000	
17	 C10	5.145	7.466	22.156	C.3	1	UNK0	0.000	
18	 C11	4.991	7.200	23.661	C.3	1	UNK0	0.000	
19	 C12	6.391	6.719	21.677	C.3	1	UNK0	0.000	
20	 C13	10.331	7.742	26.557	C.2	1	UNK0	0.000	
21	 C14	8.852	7.937	24.637	C.2	1	UNK0	0.000	
22	 C15	9.163	7.352	25.886	C.2	1	UNK0	0.000	
23	 C16	9.763	8.897	24.133	C.2	1	UNK0	0.000	
24	  N4	11.149	8.646	26.043	N.2	1	UNK0	0.000	
25	 C17	10.904	9.221	24.877	C.2	1	UNK0	0.000	
26	 C18	2.729	4.746	20.030	C.3	1	UNK0	0.000	
27	  N5	3.999	4.207	19.583	N.3	1	UNK0	0.000	
28	  S2	3.999	2.742	18.726	S.o2	1	UNK0	0.000	
29	  O4	3.514	2.951	17.238	O.2	1	UNK0	0.000	
30	  O5	2.990	1.767	19.467	O.2	1	UNK0	0.000	
31	 C19	6.015	1.134	17.865	C.2	1	UNK0	0.000	
32	 C20	5.640	2.112	18.784	C.2	1	UNK0	0.000	
33	 C21	8.254	1.111	18.886	C.2	1	UNK0	0.000	
34	 C22	7.851	2.094	19.795	C.2	1	UNK0	0.000	
35	 C23	6.545	2.599	19.751	C.2	1	UNK0	0.000	
36	 C24	7.307	0.621	17.896	C.2	1	UNK0	0.000	
37	 C25	7.695	-0.359	16.986	C.2	1	UNK0	0.000	
38	 C26	9.539	0.588	18.905	C.2	1	UNK0	0.000	
39	 C27	8.982	-0.868	17.026	C.2	1	UNK0	0.000	
40	 C28	9.893	-0.401	17.974	C.2	1	UNK0	0.000	
41	 Cl1	11.506	-1.062	17.990	Cl	1	UNK0	0.000	
@<TRIPOS>BOND
1 1 2 1
2 1 12 1
3 1 26 1
4 2 3 2
5 2 4 1
6 4 5 1
7 4 10 1
8 5 6 1
9 6 7 1
10 7 8 2
11 7 9 2
12 7 11 1
13 10 11 1
14 12 13 1
15 13 17 1
16 14 15 1
17 14 16 1
18 14 21 1
19 15 18 1
20 16 19 1
21 17 18 1
22 17 19 1
23 20 22 1
24 20 24 2
25 21 22 2
26 21 23 1
27 23 25 2
28 24 25 1
29 26 27 1
30 27 28 1
31 28 29 2
32 28 30 2
33 28 32 1
34 31 32 2
35 31 36 1
36 32 35 1
37 33 34 1
38 33 36 1
39 33 38 2
40 34 35 2
41 36 37 2
42 37 39 1
43 38 40 1
44 39 40 2
45 40 41 1
@<TRIPOS>SUBSTRUCTURE
1	UNK0	1	GROUP	1 ****	UNK
