# created with PyMOL 2.5.0
@<TRIPOS>MOLECULE
MOL
57 61 1                 
SMALL
USER_CHARGES
@<TRIPOS>ATOM
1	 H22	9.400	0.795	20.216	 H	1	UNK0	0.000	
2	 H24	3.960	1.007	20.208	 H	1	UNK0	0.000	
3	 H23	3.457	0.165	18.723	 H	1	UNK0	0.000	
4	 H25	3.777	1.915	18.687	 H	1	UNK0	0.000	
5	 H01	4.074	5.269	22.305	 H	1	UNK0	0.000	
6	 H13	11.533	8.808	25.543	 H	1	UNK0	0.000	
7	 H03	8.412	3.385	20.514	 H	1	UNK0	0.000	
8	 H09	8.351	10.441	22.196	 H	1	UNK0	0.000	
9	 H10	7.737	6.703	25.910	 H	1	UNK0	0.000	
10	 H02	4.384	2.815	22.066	 H	1	UNK0	0.000	
11	 H08	8.909	8.661	20.343	 H	1	UNK0	0.000	
12	 H07	7.219	9.343	20.528	 H	1	UNK0	0.000	
13	 H18	7.470	1.111	21.640	 H	1	UNK0	0.000	
14	 H06	4.878	8.818	21.262	 H	1	UNK0	0.000	
15	 H12	10.749	9.818	23.402	 H	1	UNK0	0.000	
16	 H04	4.184	7.585	22.341	 H	1	UNK0	0.000	
17	 H11	6.981	7.721	23.782	 H	1	UNK0	0.000	
18	 H14	9.700	6.444	28.986	 H	1	UNK0	0.000	
19	 H17	5.660	0.982	21.627	 H	1	UNK0	0.000	
20	 H16	11.546	6.190	28.237	 H	1	UNK0	0.000	
21	 H15	8.371	7.181	28.121	 H	1	UNK0	0.000	
22	 H05	5.471	8.662	22.933	 H	1	UNK0	0.000	
23	 H21	11.013	0.011	18.474	 H	1	UNK0	0.000	
24	 H20	10.222	-0.687	16.221	 H	1	UNK0	0.000	
25	 H19	7.789	-0.643	15.645	 H	1	UNK0	0.000	
26	  N1	8.203	6.225	20.748	N.2	1	UNK0	0.000	
27	  C1	7.422	7.327	21.114	C.2	1	UNK0	0.000	
28	  N2	6.122	7.139	21.612	N.pl3	1	UNK0	0.000	
29	  C2	6.080	5.752	21.555	C.2	1	UNK0	0.000	
30	  C3	7.317	5.213	21.041	C.2	1	UNK0	0.000	
31	  C4	5.013	4.870	21.922	C.2	1	UNK0	0.000	
32	  C5	5.192	3.489	21.782	C.2	1	UNK0	0.000	
33	  C6	6.409	2.944	21.277	C.2	1	UNK0	0.000	
34	  C7	7.482	3.800	20.902	C.2	1	UNK0	0.000	
35	  C8	5.095	8.117	22.068	C.3	1	UNK0	0.000	
36	  C9	8.016	8.740	20.962	C.3	1	UNK0	0.000	
37	  N3	8.394	9.432	22.213	N.pl3	1	UNK0	0.000	
38	 C10	9.700	7.662	25.919	C.2	1	UNK0	0.000	
39	 C11	8.403	7.380	25.375	C.2	1	UNK0	0.000	
40	 C12	7.973	7.955	24.168	C.2	1	UNK0	0.000	
41	 C13	8.815	8.834	23.451	C.2	1	UNK0	0.000	
42	 C14	10.097	9.139	23.951	C.2	1	UNK0	0.000	
43	 C15	10.539	8.564	25.167	C.2	1	UNK0	0.000	
44	  N4	9.337	6.888	28.156	N.pl3	1	UNK0	0.000	
45	  N5	11.328	6.615	27.347	N.2	1	UNK0	0.000	
46	 C16	10.120	7.085	27.120	C.2	1	UNK0	0.000	
47	 C17	6.543	1.415	21.154	C.3	1	UNK0	0.000	
48	  N6	6.565	0.913	19.732	N.pl3	1	UNK0	0.000	
49	 C18	5.537	0.689	18.786	C.2	1	UNK0	0.000	
50	  N7	5.812	0.213	17.505	N.2	1	UNK0	0.000	
51	 C19	7.183	0.109	17.618	C.2	1	UNK0	0.000	
52	 C20	7.636	0.519	18.932	C.2	1	UNK0	0.000	
53	 C21	8.126	-0.331	16.634	C.2	1	UNK0	0.000	
54	 C22	9.497	-0.356	16.965	C.2	1	UNK0	0.000	
55	 C23	9.948	0.044	18.247	C.2	1	UNK0	0.000	
56	 C24	9.040	0.485	19.235	C.2	1	UNK0	0.000	
57	 C25	4.080	0.964	19.125	C.3	1	UNK0	0.000	
@<TRIPOS>BOND
1 26 27 2
2 26 30 1
3 27 28 1
4 27 36 1
5 28 29 1
6 28 35 1
7 29 30 1
8 29 31 2
9 30 34 2
10 5 31 1
11 31 32 1
12 10 32 1
13 32 33 2
14 33 34 1
15 33 47 1
16 7 34 1
17 14 35 1
18 16 35 1
19 22 35 1
20 11 36 1
21 12 36 1
22 36 37 1
23 8 37 1
24 37 41 1
25 38 39 1
26 38 43 2
27 38 46 1
28 9 39 1
29 39 40 2
30 17 40 1
31 40 41 1
32 41 42 2
33 15 42 1
34 42 43 1
35 6 43 1
36 18 44 1
37 21 44 1
38 44 46 1
39 20 45 1
40 45 46 2
41 13 47 1
42 19 47 1
43 47 48 1
44 48 49 1
45 48 52 1
46 49 50 2
47 49 57 1
48 50 51 1
49 51 52 1
50 51 53 2
51 52 56 2
52 25 53 1
53 53 54 1
54 24 54 1
55 54 55 2
56 23 55 1
57 55 56 1
58 1 56 1
59 2 57 1
60 3 57 1
61 4 57 1
@<TRIPOS>SUBSTRUCTURE
1	UNK0	1	GROUP	1 ****	UNK
