# created with PyMOL 2.5.0
@<TRIPOS>MOLECULE
MOL
64 67 1                 
SMALL
USER_CHARGES
@<TRIPOS>ATOM
1	 H17	9.566	7.012	25.232	 H	1	UNK0	0.000	
2	 H02	8.066	1.970	20.391	 H	1	UNK0	0.000	
3	 H01	6.353	0.467	19.614	 H	1	UNK0	0.000	
4	 H07	8.362	6.457	23.562	 H	1	UNK0	0.000	
5	 H06	6.994	7.518	23.369	 H	1	UNK0	0.000	
6	 H05	4.703	5.522	19.510	 H	1	UNK0	0.000	
7	 H04	4.441	3.282	18.463	 H	1	UNK0	0.000	
8	 H03	8.319	4.206	21.449	 H	1	UNK0	0.000	
9	 H15	10.164	10.297	25.090	 H	1	UNK0	0.000	
10	 H10	8.651	7.960	19.867	 H	1	UNK0	0.000	
11	 H13	9.557	7.872	23.605	 H	1	UNK0	0.000	
12	 H12	8.872	10.068	21.620	 H	1	UNK0	0.000	
13	 H23	9.073	1.561	18.853	 H	1	UNK0	0.000	
14	 H11	10.180	9.019	21.322	 H	1	UNK0	0.000	
15	 H09	7.260	8.707	20.732	 H	1	UNK0	0.000	
16	 H08	8.586	6.084	21.191	 H	1	UNK0	0.000	
17	 H16	8.386	8.186	25.862	 H	1	UNK0	0.000	
18	 H19	3.905	-0.596	17.427	 H	1	UNK0	0.000	
19	 H22	7.343	-1.069	15.939	 H	1	UNK0	0.000	
20	 H21	6.021	0.443	16.795	 H	1	UNK0	0.000	
21	 H20	6.907	2.009	17.180	 H	1	UNK0	0.000	
22	 H31	9.525	-5.668	13.498	 H	1	UNK0	0.000	
23	 H26	12.449	-3.820	16.634	 H	1	UNK0	0.000	
24	 H25	12.352	-1.817	18.096	 H	1	UNK0	0.000	
25	 H24	11.119	0.138	18.923	 H	1	UNK0	0.000	
26	 H27	8.498	-2.994	15.243	 H	1	UNK0	0.000	
27	 H30	8.577	-4.548	14.451	 H	1	UNK0	0.000	
28	 H29	12.621	-4.629	14.894	 H	1	UNK0	0.000	
29	 H28	11.856	-5.715	13.755	 H	1	UNK0	0.000	
30	 H14	9.420	10.702	23.675	 H	1	UNK0	0.000	
31	 H18	10.128	8.461	26.099	 H	1	UNK0	0.000	
32	  C1	5.974	1.102	18.813	C.3	1	UNK0	0.000	
33	  C2	7.326	2.749	20.209	C.2	1	UNK0	0.000	
34	  C3	7.471	4.000	20.795	C.2	1	UNK0	0.000	
35	  C4	5.286	3.486	19.121	C.2	1	UNK0	0.000	
36	  C5	5.434	4.738	19.704	C.2	1	UNK0	0.000	
37	  C6	6.526	4.987	20.541	C.2	1	UNK0	0.000	
38	  C7	6.226	2.495	19.383	C.2	1	UNK0	0.000	
39	  O1	6.686	6.276	21.173	O.3	1	UNK0	0.000	
40	  N1	8.884	8.409	22.963	N.3	1	UNK0	0.000	
41	  C8	7.971	7.272	22.954	C.3	1	UNK0	0.000	
42	  C9	7.898	6.870	21.500	C.3	1	UNK0	0.000	
43	 C10	8.197	8.160	20.838	C.3	1	UNK0	0.000	
44	 C11	9.140	9.012	21.649	C.3	1	UNK0	0.000	
45	 C12	9.431	8.837	24.096	C.3	1	UNK0	0.000	
46	  N2	10.013	10.023	24.130	N.3	1	UNK0	0.000	
47	 C13	9.374	8.069	25.417	C.3	1	UNK0	0.000	
48	 C14	4.543	0.604	18.605	C.2	1	UNK0	0.000	
49	  O2	4.141	0.334	17.470	O.3	1	UNK0	0.000	
50	  O3	3.854	0.450	19.617	O.co2	1	UNK0	0.000	
51	 C15	6.685	0.982	17.471	C.3	1	UNK0	0.000	
52	 C16	8.158	-0.817	16.617	C.2	1	UNK0	0.000	
53	 C17	8.029	0.273	17.454	C.2	1	UNK0	0.000	
54	 C18	9.126	0.653	18.252	C.2	1	UNK0	0.000	
55	 C19	10.285	-0.132	18.276	C.2	1	UNK0	0.000	
56	 C20	10.363	-1.267	17.461	C.2	1	UNK0	0.000	
57	 C21	11.509	-2.062	17.451	C.2	1	UNK0	0.000	
58	 C22	11.570	-3.175	16.607	C.2	1	UNK0	0.000	
59	 C23	10.517	-3.478	15.726	C.2	1	UNK0	0.000	
60	 C24	9.373	-2.705	15.824	C.2	1	UNK0	0.000	
61	 C25	9.292	-1.592	16.619	C.2	1	UNK0	0.000	
62	 C26	10.593	-4.480	14.769	C.2	1	UNK0	0.000	
63	  N3	11.787	-4.982	14.446	N.pl3	1	UNK0	0.000	
64	  N4	9.473	-4.936	14.192	N.pl3	1	UNK0	0.000	
@<TRIPOS>BOND
1 3 32 1
2 32 38 1
3 32 48 1
4 32 51 1
5 2 33 1
6 33 34 1
7 33 38 2
8 8 34 1
9 34 37 2
10 7 35 1
11 35 36 2
12 35 38 1
13 6 36 1
14 36 37 1
15 37 39 1
16 39 42 1
17 40 41 1
18 40 44 1
19 40 45 1
20 4 41 1
21 5 41 1
22 41 42 1
23 16 42 1
24 42 43 1
25 10 43 1
26 15 43 1
27 43 44 1
28 12 44 1
29 14 44 1
30 11 45 1
31 45 46 1
32 45 47 1
33 9 46 1
34 30 46 1
35 1 47 1
36 17 47 1
37 31 47 1
38 48 49 1
39 48 50 2
40 18 49 1
41 20 51 1
42 21 51 1
43 51 53 1
44 19 52 1
45 52 53 2
46 52 61 1
47 53 54 1
48 13 54 1
49 54 55 2
50 25 55 1
51 55 56 1
52 56 57 2
53 56 61 1
54 24 57 1
55 57 58 1
56 23 58 1
57 58 59 2
58 59 60 1
59 59 62 1
60 26 60 1
61 60 61 2
62 62 63 1
63 62 64 2
64 28 63 1
65 29 63 1
66 22 64 1
67 27 64 1
@<TRIPOS>SUBSTRUCTURE
1	UNK0	1	GROUP	1 ****	UNK
