# created with PyMOL 2.5.0
@<TRIPOS>MOLECULE
MOL
32 36 1                 
SMALL
USER_CHARGES
@<TRIPOS>ATOM
1	  N1	8.203	6.225	20.748	N.2	1	UNK0	0.000	
2	  C1	7.422	7.327	21.114	C.2	1	UNK0	0.000	
3	  N2	6.122	7.139	21.612	N.pl3	1	UNK0	0.000	
4	  C2	6.080	5.752	21.555	C.2	1	UNK0	0.000	
5	  C3	7.317	5.213	21.041	C.2	1	UNK0	0.000	
6	  C4	5.013	4.870	21.922	C.2	1	UNK0	0.000	
7	  C5	5.192	3.489	21.782	C.2	1	UNK0	0.000	
8	  C6	6.409	2.944	21.277	C.2	1	UNK0	0.000	
9	  C7	7.482	3.800	20.902	C.2	1	UNK0	0.000	
10	  C8	5.095	8.117	22.068	C.3	1	UNK0	0.000	
11	  C9	8.016	8.740	20.962	C.3	1	UNK0	0.000	
12	  N3	8.394	9.432	22.213	N.pl3	1	UNK0	0.000	
13	 C10	9.700	7.662	25.919	C.2	1	UNK0	0.000	
14	 C11	8.403	7.380	25.375	C.2	1	UNK0	0.000	
15	 C12	7.973	7.955	24.168	C.2	1	UNK0	0.000	
16	 C13	8.815	8.834	23.451	C.2	1	UNK0	0.000	
17	 C14	10.097	9.139	23.951	C.2	1	UNK0	0.000	
18	 C15	10.539	8.564	25.167	C.2	1	UNK0	0.000	
19	  N4	9.337	6.888	28.156	N.pl3	1	UNK0	0.000	
20	  N5	11.328	6.615	27.347	N.2	1	UNK0	0.000	
21	 C16	10.120	7.085	27.120	C.2	1	UNK0	0.000	
22	 C17	6.543	1.415	21.154	C.3	1	UNK0	0.000	
23	  N6	6.565	0.913	19.732	N.pl3	1	UNK0	0.000	
24	 C18	5.537	0.689	18.786	C.2	1	UNK0	0.000	
25	  N7	5.812	0.213	17.505	N.2	1	UNK0	0.000	
26	 C19	7.183	0.109	17.618	C.2	1	UNK0	0.000	
27	 C20	7.636	0.519	18.932	C.2	1	UNK0	0.000	
28	 C21	8.126	-0.331	16.634	C.2	1	UNK0	0.000	
29	 C22	9.497	-0.356	16.965	C.2	1	UNK0	0.000	
30	 C23	9.948	0.044	18.247	C.2	1	UNK0	0.000	
31	 C24	9.040	0.485	19.235	C.2	1	UNK0	0.000	
32	 C25	4.080	0.964	19.125	C.3	1	UNK0	0.000	
@<TRIPOS>BOND
1 1 2 2
2 1 5 1
3 2 3 1
4 2 11 1
5 3 4 1
6 3 10 1
7 4 5 1
8 4 6 2
9 5 9 2
10 6 7 1
11 7 8 2
12 8 9 1
13 8 22 1
14 11 12 1
15 12 16 1
16 13 14 1
17 13 18 2
18 13 21 1
19 14 15 2
20 15 16 1
21 16 17 2
22 17 18 1
23 19 21 1
24 20 21 2
25 22 23 1
26 23 24 1
27 23 27 1
28 24 25 2
29 24 32 1
30 25 26 1
31 26 27 1
32 26 28 2
33 27 31 2
34 28 29 1
35 29 30 2
36 30 31 1
@<TRIPOS>SUBSTRUCTURE
1	UNK0	1	GROUP	1 ****	UNK
