# created with PyMOL 2.5.0
@<TRIPOS>MOLECULE
MOL
33 36 1                 
SMALL
USER_CHARGES
@<TRIPOS>ATOM
1	  C1	6.183	2.123	20.627	C.3	1	UNK0	0.000	
2	  C2	5.230	4.223	21.711	C.2	1	UNK0	0.000	
3	  C3	5.321	5.577	22.005	C.2	1	UNK0	0.000	
4	  C4	7.451	4.276	20.735	C.2	1	UNK0	0.000	
5	  C5	7.543	5.629	21.033	C.2	1	UNK0	0.000	
6	  C6	6.475	6.274	21.664	C.2	1	UNK0	0.000	
7	  C7	6.293	3.581	21.066	C.2	1	UNK0	0.000	
8	  O1	6.543	7.685	21.964	O.3	1	UNK0	0.000	
9	  N1	9.186	8.342	24.236	N.3	1	UNK0	0.000	
10	  C8	8.642	8.431	22.887	C.3	1	UNK0	0.000	
11	  C9	7.155	8.247	23.076	C.3	1	UNK0	0.000	
12	 C10	7.130	7.441	24.318	C.3	1	UNK0	0.000	
13	 C11	8.276	7.776	25.239	C.3	1	UNK0	0.000	
14	 C12	10.419	8.760	24.505	C.3	1	UNK0	0.000	
15	  N2	11.075	9.474	23.607	N.3	1	UNK0	0.000	
16	 C13	11.128	8.530	25.841	C.3	1	UNK0	0.000	
17	 C14	4.934	1.311	20.969	C.2	1	UNK0	0.000	
18	  O2	4.055	1.141	20.120	O.co2	1	UNK0	0.000	
19	  O3	4.884	0.812	22.096	O.co2	1	UNK0	0.000	
20	 C15	6.362	2.048	19.116	C.3	1	UNK0	0.000	
21	 C16	7.201	0.302	17.571	C.2	1	UNK0	0.000	
22	 C17	7.497	1.186	18.590	C.2	1	UNK0	0.000	
23	 C18	8.812	1.228	19.095	C.2	1	UNK0	0.000	
24	 C19	9.768	0.309	18.646	C.2	1	UNK0	0.000	
25	 C20	9.420	-0.616	17.656	C.2	1	UNK0	0.000	
26	 C21	10.354	-1.536	17.177	C.2	1	UNK0	0.000	
27	 C22	9.987	-2.431	16.169	C.2	1	UNK0	0.000	
28	 C23	8.708	-2.386	15.586	C.2	1	UNK0	0.000	
29	 C24	7.795	-1.507	16.143	C.2	1	UNK0	0.000	
30	 C25	8.130	-0.599	17.111	C.2	1	UNK0	0.000	
31	 C26	8.348	-3.150	14.486	C.2	1	UNK0	0.000	
32	  N3	7.677	-4.288	14.677	N.pl3	1	UNK0	0.000	
33	  N4	8.665	-2.735	13.252	N.2	1	UNK0	0.000	
@<TRIPOS>BOND
1 1 7 1
2 1 17 1
3 1 20 1
4 2 3 1
5 2 7 2
6 3 6 2
7 4 5 2
8 4 7 1
9 5 6 1
10 6 8 1
11 8 11 1
12 9 10 1
13 9 13 1
14 9 14 1
15 10 11 1
16 11 12 1
17 12 13 1
18 14 15 1
19 14 16 1
20 17 18 1
21 17 19 2
22 20 22 1
23 21 22 2
24 21 30 1
25 22 23 1
26 23 24 2
27 24 25 1
28 25 26 2
29 25 30 1
30 26 27 1
31 27 28 2
32 28 29 1
33 28 31 1
34 29 30 2
35 31 32 1
36 31 33 2
@<TRIPOS>SUBSTRUCTURE
1	UNK0	1	GROUP	1 ****	UNK
