# created with PyMOL 2.5.0
@<TRIPOS>MOLECULE
comp
25 27 1                 
SMALL
USER_CHARGES
@<TRIPOS>ATOM
1	  C1	-8.637	208.575	119.683	C.3	1	LIG1	0.000	
2	  C2	-8.993	208.662	121.028	C.3	1	LIG1	0.000	
3	  C3	-8.436	209.624	121.871	C.3	1	LIG1	0.000	
4	  C4	-7.474	210.505	121.362	C.3	1	LIG1	0.000	
5	  C5	-7.065	210.405	120.021	C.3	1	LIG1	0.000	
6	  C6	-7.651	209.449	119.192	C.3	1	LIG1	0.000	
7	 C10	-10.511	208.219	114.306	C.3	1	LIG1	0.000	
8	 C11	-11.186	208.212	113.079	C.3	1	LIG1	0.000	
9	 C12	-12.388	207.493	112.874	C.3	1	LIG1	0.000	
10	 C13	-13.001	206.750	113.895	C.3	1	LIG1	0.000	
11	 C14	-12.352	206.714	115.115	C.3	1	LIG1	0.000	
12	 C15	-11.039	207.467	115.348	C.3	1	LIG1	0.000	
13	  S1	-6.778	211.832	122.395	S.o2	1	LIG1	0.000	
14	  O1	-7.531	213.028	122.061	O.3	1	LIG1	0.000	
15	  O2	-5.336	211.806	122.207	O.3	1	LIG1	0.000	
16	  N1	-7.121	211.440	123.932	N.3	1	LIG1	0.000	
17	  C7	-6.495	210.504	124.497	C.3	1	LIG1	0.000	
18	  N2	-5.513	209.678	124.182	N.3	1	LIG1	0.000	
19	  N3	-6.788	210.148	125.726	N.3	1	LIG1	0.000	
20	  N4	-9.304	207.639	118.875	N.3	1	LIG1	0.000	
21	  N5	-12.745	205.941	116.411	N.3	1	LIG1	0.000	
22	  C8	-11.708	206.169	117.507	C.3	1	LIG1	0.000	
23	  C9	-10.547	207.191	116.855	C.3	1	LIG1	0.000	
24	  O3	-11.753	205.796	118.665	O.3	1	LIG1	0.000	
25	 C16	-9.544	207.760	117.526	C.3	1	LIG1	0.000	
@<TRIPOS>BOND
1 1 2 1
2 1 6 1
3 1 20 1
4 2 3 1
5 3 4 1
6 4 5 1
7 4 13 1
8 5 6 1
9 7 8 1
10 7 12 1
11 8 9 1
12 9 10 1
13 10 11 1
14 11 12 1
15 11 21 1
16 12 23 1
17 13 14 1
18 13 15 1
19 13 16 1
20 16 17 1
21 17 18 1
22 17 19 1
23 20 25 1
24 21 22 1
25 22 23 1
26 22 24 1
27 23 25 1
@<TRIPOS>SUBSTRUCTURE
1	LIG1	1	GROUP	1 ****	LIG
