# created with PyMOL 2.5.0
@<TRIPOS>MOLECULE
comp
25 27 1                 
SMALL
USER_CHARGES
@<TRIPOS>ATOM
1	  C1	-12.654	204.153	119.412	C.3	1	LIG1	0.000	
2	  C2	-13.933	203.611	119.229	C.3	1	LIG1	0.000	
3	  C3	-14.971	203.895	120.116	C.3	1	LIG1	0.000	
4	  C4	-14.745	204.812	121.161	C.3	1	LIG1	0.000	
5	  C5	-13.483	205.392	121.337	C.3	1	LIG1	0.000	
6	  C6	-12.447	205.057	120.459	C.3	1	LIG1	0.000	
7	 C10	-11.725	207.465	115.343	C.3	1	LIG1	0.000	
8	 C11	-11.473	208.744	114.827	C.3	1	LIG1	0.000	
9	 C12	-10.231	209.395	114.979	C.3	1	LIG1	0.000	
10	 C13	-9.164	208.813	115.670	C.3	1	LIG1	0.000	
11	 C14	-9.356	207.559	116.199	C.3	1	LIG1	0.000	
12	 C15	-10.692	206.829	116.025	C.3	1	LIG1	0.000	
13	  S1	-16.108	205.247	122.279	S.o2	1	LIG1	0.000	
14	  O1	-17.027	204.126	122.314	O.3	1	LIG1	0.000	
15	  O2	-16.576	206.562	121.879	O.3	1	LIG1	0.000	
16	  N1	-15.416	205.393	123.730	N.3	1	LIG1	0.000	
17	  C7	-16.167	205.590	124.726	C.3	1	LIG1	0.000	
18	  N2	-15.608	205.799	125.905	N.3	1	LIG1	0.000	
19	  N3	-17.484	205.686	124.913	N.3	1	LIG1	0.000	
20	  N4	-11.644	203.970	118.473	N.3	1	LIG1	0.000	
21	  N5	-8.403	206.700	117.093	N.3	1	LIG1	0.000	
22	  C8	-9.101	205.407	117.525	C.3	1	LIG1	0.000	
23	  C9	-10.619	205.425	116.835	C.3	1	LIG1	0.000	
24	  O3	-8.701	204.593	118.332	O.3	1	LIG1	0.000	
25	 C16	-11.655	204.737	117.321	C.3	1	LIG1	0.000	
@<TRIPOS>BOND
1 1 2 1
2 1 6 1
3 1 20 1
4 2 3 1
5 3 4 1
6 4 5 1
7 4 13 1
8 5 6 1
9 7 8 1
10 7 12 1
11 8 9 1
12 9 10 1
13 10 11 1
14 11 12 1
15 11 21 1
16 12 23 1
17 13 14 1
18 13 15 1
19 13 16 1
20 16 17 1
21 17 18 1
22 17 19 1
23 20 25 1
24 21 22 1
25 22 23 1
26 22 24 1
27 23 25 1
@<TRIPOS>SUBSTRUCTURE
1	LIG1	1	GROUP	1 ****	LIG
