# created with PyMOL 2.5.0
@<TRIPOS>MOLECULE
comp
25 27 1                 
SMALL
USER_CHARGES
@<TRIPOS>ATOM
1	  C1	-6.719	206.632	111.298	C.3	1	LIG1	0.000	
2	  C2	-5.689	207.569	111.375	C.3	1	LIG1	0.000	
3	  C3	-4.442	207.230	111.947	C.3	1	LIG1	0.000	
4	  C4	-4.257	205.911	112.417	C.3	1	LIG1	0.000	
5	  C5	-5.280	204.962	112.301	C.3	1	LIG1	0.000	
6	  C6	-6.497	205.322	111.735	C.3	1	LIG1	0.000	
7	 C10	-12.417	205.931	111.745	C.3	1	LIG1	0.000	
8	 C11	-13.684	205.770	112.335	C.3	1	LIG1	0.000	
9	 C12	-13.853	205.631	113.728	C.3	1	LIG1	0.000	
10	 C13	-12.775	205.658	114.624	C.3	1	LIG1	0.000	
11	 C14	-11.513	205.812	114.085	C.3	1	LIG1	0.000	
12	 C15	-11.306	205.965	112.577	C.3	1	LIG1	0.000	
13	  S1	-2.764	205.450	113.337	S.o2	1	LIG1	0.000	
14	  O1	-2.012	206.653	113.623	O.3	1	LIG1	0.000	
15	  O2	-2.159	204.377	112.546	O.3	1	LIG1	0.000	
16	  N1	-3.366	204.784	114.683	N.3	1	LIG1	0.000	
17	  C7	-3.791	205.550	115.598	C.3	1	LIG1	0.000	
18	  N2	-4.511	205.079	116.590	N.3	1	LIG1	0.000	
19	  N3	-3.802	206.846	115.807	N.3	1	LIG1	0.000	
20	  N4	-7.956	206.991	110.725	N.3	1	LIG1	0.000	
21	  N5	-10.131	205.877	114.810	N.3	1	LIG1	0.000	
22	  C8	-9.005	206.088	113.797	C.3	1	LIG1	0.000	
23	  C9	-9.719	206.144	112.289	C.3	1	LIG1	0.000	
24	  O3	-7.815	206.170	114.075	O.3	1	LIG1	0.000	
25	 C16	-9.205	206.527	111.111	C.3	1	LIG1	0.000	
@<TRIPOS>BOND
1 1 2 1
2 1 6 1
3 1 20 1
4 2 3 1
5 3 4 1
6 4 5 1
7 4 13 1
8 5 6 1
9 7 8 1
10 7 12 1
11 8 9 1
12 9 10 1
13 10 11 1
14 11 12 1
15 11 21 1
16 12 23 1
17 13 14 1
18 13 15 1
19 13 16 1
20 16 17 1
21 17 18 1
22 17 19 1
23 20 25 1
24 21 22 1
25 22 23 1
26 22 24 1
27 23 25 1
@<TRIPOS>SUBSTRUCTURE
1	LIG1	1	GROUP	1 ****	LIG
