# created with PyMOL 2.5.0
@<TRIPOS>MOLECULE
data/HSP90/cocry_dataset/1byq_ADP_LIG.pdb
27 29 1                 
SMALL
USER_CHARGES
@<TRIPOS>ATOM
1	  C1	3.929	8.876	23.266	C.3	1	UNK0	0.000	
2	  O1	4.516	10.119	22.821	O.3	1	UNK0	0.000	
3	  C2	5.960	9.962	22.717	C.3	1	UNK0	0.000	
4	  C3	6.289	8.622	23.385	C.3	1	UNK0	0.000	
5	  C4	5.020	7.823	23.102	C.3	1	UNK0	0.000	
6	  O2	5.095	7.303	21.766	O.3	1	UNK0	0.000	
7	  O3	7.428	7.955	22.858	O.3	1	UNK0	0.000	
8	  N1	6.592	11.120	23.326	N.pl3	1	UNK0	0.000	
9	  C5	7.933	11.282	23.551	C.2	1	UNK0	0.000	
10	  N2	8.219	12.455	24.074	N.2	1	UNK0	0.000	
11	  C6	6.984	13.053	24.260	C.2	1	UNK0	0.000	
12	  C7	6.597	14.299	24.789	C.2	1	UNK0	0.000	
13	  N3	7.504	15.253	25.234	N.pl3	1	UNK0	0.000	
14	  N4	5.280	14.575	24.901	N.2	1	UNK0	0.000	
15	  C8	4.391	13.656	24.461	C.2	1	UNK0	0.000	
16	  N5	4.636	12.450	23.909	N.2	1	UNK0	0.000	
17	  C9	5.960	12.217	23.839	C.2	1	UNK0	0.000	
18	 C10	3.519	8.928	24.743	C.3	1	UNK0	0.000	
19	  O4	2.946	10.165	25.131	O.3	1	UNK0	0.000	
20	  P1	1.344	10.272	24.974	P.3	1	UNK0	0.000	
21	  O5	0.759	9.356	23.956	O.co2	1	UNK0	0.000	
22	  O6	0.822	9.950	26.455	O.co2	1	UNK0	0.000	
23	  O7	1.020	11.827	24.771	O.3	1	UNK0	0.000	
24	  P2	0.850	12.259	23.104	P.3	1	UNK0	0.000	
25	  O8	1.247	13.697	23.430	O.co2	1	UNK0	0.000	
26	  O9	2.285	11.578	22.740	O.co2	1	UNK0	0.000	
27	 O10	0.681	12.690	21.437	O.co2	1	UNK0	0.000	
@<TRIPOS>BOND
1 1 2 1
2 1 5 1
3 1 18 1
4 2 3 1
5 3 4 1
6 3 8 1
7 4 5 1
8 4 7 1
9 5 6 1
10 8 9 1
11 8 17 1
12 9 10 2
13 10 11 1
14 11 12 1
15 11 17 2
16 12 13 1
17 12 14 2
18 14 15 1
19 15 16 2
20 16 17 1
21 18 19 1
22 19 20 1
23 20 21 2
24 20 22 1
25 20 23 1
26 23 24 1
27 24 25 2
28 24 26 1
29 24 27 1
@<TRIPOS>SUBSTRUCTURE
1	UNK0	1	GROUP	1 ****	UNK
