# created with PyMOL 2.5.0
@<TRIPOS>MOLECULE
data/HSP90/cocry_dataset/1byq_ADP_LIG.pdb
27 29 1                 
SMALL
USER_CHARGES
@<TRIPOS>ATOM
1	  C1	6.044	8.890	22.844	C.3	1	UNK0	0.000	
2	  O1	5.694	10.253	22.513	O.3	1	UNK0	0.000	
3	  C2	6.729	11.151	23.005	C.3	1	UNK0	0.000	
4	  C3	7.630	10.304	23.911	C.3	1	UNK0	0.000	
5	  C4	7.513	8.930	23.255	C.3	1	UNK0	0.000	
6	  O2	8.405	8.882	22.132	O.3	1	UNK0	0.000	
7	  O3	8.988	10.720	23.961	O.3	1	UNK0	0.000	
8	  N1	6.084	12.275	23.663	N.pl3	1	UNK0	0.000	
9	  C5	4.738	12.429	23.862	C.2	1	UNK0	0.000	
10	  N2	4.449	13.525	24.531	N.2	1	UNK0	0.000	
11	  C6	5.674	14.143	24.713	C.2	1	UNK0	0.000	
12	  C7	6.051	15.349	25.337	C.2	1	UNK0	0.000	
13	  N3	5.149	16.193	25.971	N.pl3	1	UNK0	0.000	
14	  N4	7.348	15.722	25.294	N.2	1	UNK0	0.000	
15	  C8	8.234	14.901	24.688	C.2	1	UNK0	0.000	
16	  N5	8.003	13.715	24.088	N.2	1	UNK0	0.000	
17	  C9	6.696	13.400	24.142	C.2	1	UNK0	0.000	
18	 C10	5.222	8.353	24.022	C.3	1	UNK0	0.000	
19	  O4	4.344	9.311	24.587	O.3	1	UNK0	0.000	
20	  P1	2.781	9.115	24.239	P.3	1	UNK0	0.000	
21	  O5	2.119	10.319	23.663	O.co2	1	UNK0	0.000	
22	  O6	2.799	7.881	23.216	O.co2	1	UNK0	0.000	
23	  O7	2.102	8.521	25.563	O.3	1	UNK0	0.000	
24	  P2	0.712	7.550	25.218	P.3	1	UNK0	0.000	
25	  O8	0.022	8.082	26.472	O.co2	1	UNK0	0.000	
26	  O9	0.212	8.597	24.076	O.co2	1	UNK0	0.000	
27	 O10	-0.677	6.578	24.874	O.co2	1	UNK0	0.000	
@<TRIPOS>BOND
1 1 2 1
2 1 5 1
3 1 18 1
4 2 3 1
5 3 4 1
6 3 8 1
7 4 5 1
8 4 7 1
9 5 6 1
10 8 9 1
11 8 17 1
12 9 10 2
13 10 11 1
14 11 12 1
15 11 17 2
16 12 13 1
17 12 14 2
18 14 15 1
19 15 16 2
20 16 17 1
21 18 19 1
22 19 20 1
23 20 21 2
24 20 22 1
25 20 23 1
26 23 24 1
27 24 25 2
28 24 26 1
29 24 27 1
@<TRIPOS>SUBSTRUCTURE
1	UNK0	1	GROUP	1 ****	UNK
