# created with PyMOL 2.5.0
@<TRIPOS>MOLECULE
data/HSP90/cocry_dataset/1byq_ADP_LIG.pdb
42 44 1                 
SMALL
USER_CHARGES
@<TRIPOS>ATOM
1	  C1	6.044	8.890	22.844	C.3	1	UNK0	0.000	
2	  O1	5.694	10.253	22.513	O.3	1	UNK0	0.000	
3	  C2	6.729	11.151	23.005	C.3	1	UNK0	0.000	
4	  C3	7.630	10.304	23.911	C.3	1	UNK0	0.000	
5	  C4	7.513	8.930	23.255	C.3	1	UNK0	0.000	
6	  O2	8.405	8.882	22.132	O.3	1	UNK0	0.000	
7	  O3	8.988	10.720	23.961	O.3	1	UNK0	0.000	
8	  N1	6.084	12.275	23.663	N.pl3	1	UNK0	0.000	
9	  C5	4.738	12.429	23.862	C.2	1	UNK0	0.000	
10	  N2	4.449	13.525	24.531	N.2	1	UNK0	0.000	
11	  C6	5.674	14.143	24.713	C.2	1	UNK0	0.000	
12	  C7	6.051	15.349	25.337	C.2	1	UNK0	0.000	
13	  N3	5.149	16.193	25.971	N.pl3	1	UNK0	0.000	
14	  N4	7.348	15.722	25.294	N.2	1	UNK0	0.000	
15	  C8	8.234	14.901	24.688	C.2	1	UNK0	0.000	
16	  N5	8.003	13.715	24.088	N.2	1	UNK0	0.000	
17	  C9	6.696	13.400	24.142	C.2	1	UNK0	0.000	
18	 C10	5.222	8.353	24.022	C.3	1	UNK0	0.000	
19	  O4	4.344	9.311	24.587	O.3	1	UNK0	0.000	
20	  P1	2.781	9.115	24.239	P.3	1	UNK0	0.000	
21	  O5	2.119	10.319	23.663	O.co2	1	UNK0	0.000	
22	  O6	2.799	7.881	23.216	O.3	1	UNK0	0.000	
23	  O7	2.102	8.521	25.563	O.3	1	UNK0	0.000	
24	  P2	0.712	7.550	25.218	P.3	1	UNK0	0.000	
25	  O8	0.022	8.082	26.472	O.co2	1	UNK0	0.000	
26	  O9	0.212	8.597	24.076	O.3	1	UNK0	0.000	
27	 O10	-0.677	6.578	24.874	O.3	1	UNK0	0.000	
28	 H01	5.850	8.238	21.993	 H	1	UNK0	0.000	
29	 H02	7.354	11.589	22.227	 H	1	UNK0	0.000	
30	 H03	7.321	10.360	24.954	 H	1	UNK0	0.000	
31	 H04	7.780	8.081	23.883	 H	1	UNK0	0.000	
32	 H05	8.533	9.769	21.785	 H	1	UNK0	0.000	
33	 H06	9.301	10.683	24.868	 H	1	UNK0	0.000	
34	 H07	3.989	11.723	23.504	 H	1	UNK0	0.000	
35	 H08	5.472	17.053	26.392	 H	1	UNK0	0.000	
36	 H09	4.170	15.948	26.010	 H	1	UNK0	0.000	
37	 H10	9.270	15.241	24.683	 H	1	UNK0	0.000	
38	 H11	4.604	7.542	23.636	 H	1	UNK0	0.000	
39	 H12	5.910	8.016	24.798	 H	1	UNK0	0.000	
40	 H13	1.950	7.822	22.771	 H	1	UNK0	0.000	
41	 H14	0.002	8.118	23.271	 H	1	UNK0	0.000	
42	 H15	-0.951	6.118	25.670	 H	1	UNK0	0.000	
@<TRIPOS>BOND
1 24 25 2
2 24 26 1
3 24 27 1
4 23 24 1
5 20 22 1
6 19 20 1
7 20 21 2
8 20 23 1
9 18 19 1
10 1 18 1
11 1 2 1
12 1 5 1
13 2 3 1
14 3 4 1
15 3 8 1
16 4 5 1
17 4 7 1
18 5 6 1
19 8 9 1
20 8 17 1
21 9 10 2
22 10 11 1
23 11 12 1
24 11 17 2
25 12 13 1
26 12 14 2
27 14 15 1
28 15 16 2
29 16 17 1
30 1 28 1
31 3 29 1
32 4 30 1
33 5 31 1
34 6 32 1
35 7 33 1
36 9 34 1
37 13 35 1
38 13 36 1
39 15 37 1
40 18 38 1
41 18 39 1
42 22 40 1
43 26 41 1
44 27 42 1
@<TRIPOS>SUBSTRUCTURE
1	UNK0	1	GROUP	1 ****	UNK
