# created with PyMOL 2.5.0
@<TRIPOS>MOLECULE
data/HSP90/cocry_dataset/1byq_ADP_LIG.pdb
42 44 1                 
SMALL
USER_CHARGES
@<TRIPOS>ATOM
1	 H06	9.219	10.778	24.851	 H	1	UNK0	0.000	
2	 H07	3.901	11.710	23.581	 H	1	UNK0	0.000	
3	 H11	5.872	8.157	24.904	 H	1	UNK0	0.000	
4	 H12	4.620	7.455	23.799	 H	1	UNK0	0.000	
5	 H09	4.118	15.969	26.026	 H	1	UNK0	0.000	
6	 H01	5.742	8.217	22.067	 H	1	UNK0	0.000	
7	 H14	-0.161	8.309	25.092	 H	1	UNK0	0.000	
8	 H15	-1.414	11.379	25.801	 H	1	UNK0	0.000	
9	 H05	8.418	9.753	21.790	 H	1	UNK0	0.000	
10	 H03	7.265	10.378	24.973	 H	1	UNK0	0.000	
11	 H10	9.190	15.268	24.593	 H	1	UNK0	0.000	
12	 H02	7.240	11.575	22.231	 H	1	UNK0	0.000	
13	 H13	2.206	9.224	26.421	 H	1	UNK0	0.000	
14	 H04	7.710	8.088	23.920	 H	1	UNK0	0.000	
15	 H08	5.423	17.084	26.364	 H	1	UNK0	0.000	
16	  C1	5.951	8.879	22.906	C.3	1	UNK0	0.000	
17	  O1	5.590	10.237	22.566	O.3	1	UNK0	0.000	
18	  C2	6.632	11.144	23.027	C.3	1	UNK0	0.000	
19	  C3	7.553	10.310	23.924	C.3	1	UNK0	0.000	
20	  C4	7.427	8.929	23.287	C.3	1	UNK0	0.000	
21	  O2	8.298	8.870	22.147	O.3	1	UNK0	0.000	
22	  O3	8.911	10.731	23.943	O.3	1	UNK0	0.000	
23	  N1	5.997	12.274	23.685	N.pl3	1	UNK0	0.000	
24	  C5	4.655	12.425	23.912	C.2	1	UNK0	0.000	
25	  N2	4.375	13.528	24.573	N.2	1	UNK0	0.000	
26	  C6	5.601	14.154	24.719	C.2	1	UNK0	0.000	
27	  C7	5.987	15.369	25.319	C.2	1	UNK0	0.000	
28	  N3	5.095	16.218	25.961	N.pl3	1	UNK0	0.000	
29	  N4	7.280	15.748	25.242	N.2	1	UNK0	0.000	
30	  C8	8.157	14.923	24.626	C.2	1	UNK0	0.000	
31	  N5	7.918	13.728	24.048	N.2	1	UNK0	0.000	
32	  C9	6.614	13.407	24.135	C.2	1	UNK0	0.000	
33	 C10	5.155	8.354	24.107	C.3	1	UNK0	0.000	
34	  O4	4.214	9.283	24.616	O.3	1	UNK0	0.000	
35	  P1	2.663	8.913	24.369	P.3	1	UNK0	0.000	
36	  O5	2.435	7.852	23.348	O.co2	1	UNK0	0.000	
37	  O6	2.168	8.470	25.828	O.3	1	UNK0	0.000	
38	  O7	1.911	10.301	24.101	O.3	1	UNK0	0.000	
39	  P2	0.366	10.381	24.875	P.3	1	UNK0	0.000	
40	  O8	-0.156	11.275	23.753	O.co2	1	UNK0	0.000	
41	  O9	-0.023	8.892	24.342	O.3	1	UNK0	0.000	
42	 O10	-1.179	10.461	25.649	O.3	1	UNK0	0.000	
@<TRIPOS>BOND
1 6 16 1
2 16 17 1
3 16 20 1
4 16 33 1
5 17 18 1
6 12 18 1
7 18 19 1
8 18 23 1
9 10 19 1
10 19 20 1
11 19 22 1
12 14 20 1
13 20 21 1
14 9 21 1
15 1 22 1
16 23 24 1
17 23 32 1
18 2 24 1
19 24 25 2
20 25 26 1
21 26 27 1
22 26 32 2
23 27 28 1
24 27 29 2
25 5 28 1
26 15 28 1
27 29 30 1
28 11 30 1
29 30 31 2
30 31 32 1
31 3 33 1
32 4 33 1
33 33 34 1
34 34 35 1
35 35 36 2
36 35 37 1
37 35 38 1
38 13 37 1
39 38 39 1
40 39 40 2
41 39 41 1
42 39 42 1
43 7 41 1
44 8 42 1
@<TRIPOS>SUBSTRUCTURE
1	UNK0	1	GROUP	1 ****	UNK
