# created with PyMOL 2.5.0
@<TRIPOS>MOLECULE
data/HSP90/cocry_dataset/1byq_ADP_LIG.pdb
27 29 1                 
SMALL
USER_CHARGES
@<TRIPOS>ATOM
1	  C1	5.951	8.879	22.906	C.3	1	UNK0	0.000	
2	  O1	5.590	10.237	22.566	O.3	1	UNK0	0.000	
3	  C2	6.632	11.144	23.027	C.3	1	UNK0	0.000	
4	  C3	7.553	10.310	23.924	C.3	1	UNK0	0.000	
5	  C4	7.427	8.929	23.287	C.3	1	UNK0	0.000	
6	  O2	8.298	8.870	22.147	O.3	1	UNK0	0.000	
7	  O3	8.911	10.731	23.943	O.3	1	UNK0	0.000	
8	  N1	5.997	12.274	23.685	N.pl3	1	UNK0	0.000	
9	  C5	4.655	12.425	23.912	C.2	1	UNK0	0.000	
10	  N2	4.375	13.528	24.573	N.2	1	UNK0	0.000	
11	  C6	5.601	14.154	24.719	C.2	1	UNK0	0.000	
12	  C7	5.987	15.369	25.319	C.2	1	UNK0	0.000	
13	  N3	5.095	16.218	25.961	N.pl3	1	UNK0	0.000	
14	  N4	7.280	15.748	25.242	N.2	1	UNK0	0.000	
15	  C8	8.157	14.923	24.626	C.2	1	UNK0	0.000	
16	  N5	7.918	13.728	24.048	N.2	1	UNK0	0.000	
17	  C9	6.614	13.407	24.135	C.2	1	UNK0	0.000	
18	 C10	5.155	8.354	24.107	C.3	1	UNK0	0.000	
19	  O4	4.214	9.283	24.616	O.3	1	UNK0	0.000	
20	  P1	2.663	8.913	24.369	P.3	1	UNK0	0.000	
21	  O5	2.435	7.852	23.348	O.co2	1	UNK0	0.000	
22	  O6	2.168	8.470	25.828	O.co2	1	UNK0	0.000	
23	  O7	1.911	10.301	24.101	O.3	1	UNK0	0.000	
24	  P2	0.366	10.381	24.875	P.3	1	UNK0	0.000	
25	  O8	-0.156	11.275	23.753	O.co2	1	UNK0	0.000	
26	  O9	-0.023	8.892	24.342	O.co2	1	UNK0	0.000	
27	 O10	-1.179	10.461	25.649	O.co2	1	UNK0	0.000	
@<TRIPOS>BOND
1 1 2 1
2 1 5 1
3 1 18 1
4 2 3 1
5 3 4 1
6 3 8 1
7 4 5 1
8 4 7 1
9 5 6 1
10 8 9 1
11 8 17 1
12 9 10 2
13 10 11 1
14 11 12 1
15 11 17 2
16 12 13 1
17 12 14 2
18 14 15 1
19 15 16 2
20 16 17 1
21 18 19 1
22 19 20 1
23 20 21 2
24 20 22 1
25 20 23 1
26 23 24 1
27 24 25 2
28 24 26 1
29 24 27 1
@<TRIPOS>SUBSTRUCTURE
1	UNK0	1	GROUP	1 ****	UNK
