# created with PyMOL 2.5.0
@<TRIPOS>MOLECULE
data/HSP90/cocry_dataset/1byq_ADP_LIG.pdb
42 44 1                 
SMALL
USER_CHARGES
@<TRIPOS>ATOM
1	 H06	7.653	8.330	22.003	 H	1	UNK0	0.000	
2	 H07	8.681	10.523	23.321	 H	1	UNK0	0.000	
3	 H11	4.428	8.799	25.331	 H	1	UNK0	0.000	
4	 H12	2.791	8.138	24.927	 H	1	UNK0	0.000	
5	 H09	8.496	15.073	25.175	 H	1	UNK0	0.000	
6	 H01	3.029	8.661	22.690	 H	1	UNK0	0.000	
7	 H14	2.545	11.833	21.852	 H	1	UNK0	0.000	
8	 H15	0.245	11.977	20.964	 H	1	UNK0	0.000	
9	 H05	4.514	7.809	21.192	 H	1	UNK0	0.000	
10	 H03	6.548	8.747	24.436	 H	1	UNK0	0.000	
11	 H10	3.340	13.925	24.567	 H	1	UNK0	0.000	
12	 H02	6.338	9.928	21.695	 H	1	UNK0	0.000	
13	 H13	0.850	10.749	26.986	 H	1	UNK0	0.000	
14	 H04	4.850	6.960	23.747	 H	1	UNK0	0.000	
15	 H08	7.171	16.126	25.616	 H	1	UNK0	0.000	
16	  C1	3.929	8.876	23.266	C.3	1	UNK0	0.000	
17	  O1	4.516	10.119	22.821	O.3	1	UNK0	0.000	
18	  C2	5.960	9.962	22.717	C.3	1	UNK0	0.000	
19	  C3	6.289	8.622	23.385	C.3	1	UNK0	0.000	
20	  C4	5.020	7.823	23.102	C.3	1	UNK0	0.000	
21	  O2	5.095	7.303	21.766	O.3	1	UNK0	0.000	
22	  O3	7.428	7.955	22.858	O.3	1	UNK0	0.000	
23	  N1	6.592	11.120	23.326	N.pl3	1	UNK0	0.000	
24	  C5	7.933	11.282	23.551	C.2	1	UNK0	0.000	
25	  N2	8.219	12.455	24.074	N.2	1	UNK0	0.000	
26	  C6	6.984	13.053	24.260	C.2	1	UNK0	0.000	
27	  C7	6.597	14.299	24.789	C.2	1	UNK0	0.000	
28	  N3	7.504	15.253	25.234	N.pl3	1	UNK0	0.000	
29	  N4	5.280	14.575	24.901	N.2	1	UNK0	0.000	
30	  C8	4.391	13.656	24.461	C.2	1	UNK0	0.000	
31	  N5	4.636	12.450	23.909	N.2	1	UNK0	0.000	
32	  C9	5.960	12.217	23.839	C.2	1	UNK0	0.000	
33	 C10	3.519	8.928	24.743	C.3	1	UNK0	0.000	
34	  O4	2.946	10.165	25.131	O.3	1	UNK0	0.000	
35	  P1	1.344	10.272	24.974	P.3	1	UNK0	0.000	
36	  O5	0.759	9.356	23.956	O.co2	1	UNK0	0.000	
37	  O6	0.822	9.950	26.455	O.3	1	UNK0	0.000	
38	  O7	1.020	11.827	24.771	O.3	1	UNK0	0.000	
39	  P2	0.850	12.259	23.104	P.3	1	UNK0	0.000	
40	  O8	1.247	13.697	23.430	O.co2	1	UNK0	0.000	
41	  O9	2.285	11.578	22.740	O.3	1	UNK0	0.000	
42	 O10	0.681	12.690	21.437	O.3	1	UNK0	0.000	
@<TRIPOS>BOND
1 6 16 1
2 16 17 1
3 16 20 1
4 16 33 1
5 17 18 1
6 12 18 1
7 18 19 1
8 18 23 1
9 10 19 1
10 19 20 1
11 19 22 1
12 14 20 1
13 20 21 1
14 9 21 1
15 1 22 1
16 23 24 1
17 23 32 1
18 2 24 1
19 24 25 2
20 25 26 1
21 26 27 1
22 26 32 2
23 27 28 1
24 27 29 2
25 5 28 1
26 15 28 1
27 29 30 1
28 11 30 1
29 30 31 2
30 31 32 1
31 3 33 1
32 4 33 1
33 33 34 1
34 34 35 1
35 35 36 2
36 35 37 1
37 35 38 1
38 13 37 1
39 38 39 1
40 39 40 2
41 39 41 1
42 39 42 1
43 7 41 1
44 8 42 1
@<TRIPOS>SUBSTRUCTURE
1	UNK0	1	GROUP	1 ****	UNK
