# created with PyMOL 2.5.0
@<TRIPOS>MOLECULE
data/HSP90/cocry_dataset/1uy6_PU3_LIG.pdb
52 54 1                 
SMALL
USER_CHARGES
@<TRIPOS>ATOM
1	 H01	4.799	16.678	26.352	 H	1	UNK0	0.000	
2	 H12	-0.557	9.734	28.031	 H	1	UNK0	0.000	
3	 H04	4.679	9.972	23.451	 H	1	UNK0	0.000	
4	 H03	8.953	15.462	24.992	 H	1	UNK0	0.000	
5	 H02	3.702	15.426	25.812	 H	1	UNK0	0.000	
6	 H11	-1.985	10.755	27.736	 H	1	UNK0	0.000	
7	 H09	1.892	8.450	28.576	 H	1	UNK0	0.000	
8	 H08	3.145	8.912	27.400	 H	1	UNK0	0.000	
9	 H15	-0.576	12.500	22.300	 H	1	UNK0	0.000	
10	 H07	1.834	12.390	23.103	 H	1	UNK0	0.000	
11	 H05	3.828	11.002	22.236	 H	1	UNK0	0.000	
12	 H06	3.544	9.107	25.288	 H	1	UNK0	0.000	
13	 H23	9.151	8.076	24.427	 H	1	UNK0	0.000	
14	 H14	-2.135	12.770	23.113	 H	1	UNK0	0.000	
15	 H18	6.577	10.615	22.161	 H	1	UNK0	0.000	
16	 H17	7.950	11.802	22.349	 H	1	UNK0	0.000	
17	 H16	-1.517	11.114	22.904	 H	1	UNK0	0.000	
18	 H19	8.002	10.680	24.748	 H	1	UNK0	0.000	
19	 H22	6.664	8.877	24.826	 H	1	UNK0	0.000	
20	 H21	6.568	8.749	23.046	 H	1	UNK0	0.000	
21	 H20	8.938	10.059	23.338	 H	1	UNK0	0.000	
22	 H10	2.622	7.216	27.521	 H	1	UNK0	0.000	
23	 H13	-0.358	11.474	27.711	 H	1	UNK0	0.000	
24	 H25	8.488	7.457	22.895	 H	1	UNK0	0.000	
25	 H24	7.821	6.894	24.447	 H	1	UNK0	0.000	
26	  C1	4.942	12.043	23.707	C.2	1	UNK0	0.000	
27	  N1	4.469	13.103	24.346	N.2	1	UNK0	0.000	
28	  C2	5.559	13.899	24.615	C.2	1	UNK0	0.000	
29	  C3	5.703	15.117	25.299	C.2	1	UNK0	0.000	
30	  N2	4.637	15.803	25.873	N.pl3	1	UNK0	0.000	
31	  N3	6.934	15.663	25.406	N.2	1	UNK0	0.000	
32	  C4	7.974	15.002	24.860	C.2	1	UNK0	0.000	
33	  N4	7.953	13.847	24.172	N.2	1	UNK0	0.000	
34	  C5	6.715	13.336	24.097	C.2	1	UNK0	0.000	
35	  N5	6.317	12.148	23.528	N.pl3	1	UNK0	0.000	
36	  C6	4.094	10.877	23.285	C.3	1	UNK0	0.000	
37	  C7	1.479	9.539	25.737	C.2	1	UNK0	0.000	
38	  C8	2.690	9.743	25.059	C.2	1	UNK0	0.000	
39	  C9	2.823	10.748	24.094	C.2	1	UNK0	0.000	
40	 C10	1.738	11.599	23.846	C.2	1	UNK0	0.000	
41	 C11	0.533	11.446	24.540	C.2	1	UNK0	0.000	
42	 C12	0.401	10.416	25.500	C.2	1	UNK0	0.000	
43	 C13	2.296	8.254	27.583	C.3	1	UNK0	0.000	
44	  O1	1.291	8.495	26.606	O.3	1	UNK0	0.000	
45	  O2	-0.846	10.319	26.077	O.3	1	UNK0	0.000	
46	 C14	-0.942	10.586	27.470	C.3	1	UNK0	0.000	
47	  O3	-0.571	12.243	24.344	O.3	1	UNK0	0.000	
48	 C15	-1.238	12.151	23.093	C.3	1	UNK0	0.000	
49	 C16	7.188	11.202	22.847	C.3	1	UNK0	0.000	
50	 C17	7.946	10.230	23.756	C.3	1	UNK0	0.000	
51	 C18	7.235	8.886	23.897	C.3	1	UNK0	0.000	
52	 C19	8.245	7.747	23.918	C.3	1	UNK0	0.000	
@<TRIPOS>BOND
1 26 27 2
2 26 35 1
3 27 28 1
4 28 29 1
5 28 34 2
6 29 30 1
7 29 31 2
8 1 30 1
9 5 30 1
10 31 32 1
11 4 32 1
12 32 33 2
13 33 34 1
14 34 35 1
15 35 49 1
16 3 36 1
17 11 36 1
18 26 36 1
19 37 38 1
20 37 42 2
21 12 38 1
22 38 39 2
23 36 39 1
24 39 40 1
25 10 40 1
26 40 41 2
27 41 42 1
28 41 47 1
29 42 45 1
30 7 43 1
31 8 43 1
32 22 43 1
33 43 44 1
34 37 44 1
35 45 46 1
36 2 46 1
37 6 46 1
38 23 46 1
39 47 48 1
40 9 48 1
41 14 48 1
42 17 48 1
43 15 49 1
44 16 49 1
45 49 50 1
46 18 50 1
47 21 50 1
48 50 51 1
49 19 51 1
50 20 51 1
51 51 52 1
52 13 52 1
53 24 52 1
54 25 52 1
@<TRIPOS>SUBSTRUCTURE
1	UNK0	1	GROUP	1 ****	UNK
