# created with PyMOL 2.5.0
@<TRIPOS>MOLECULE
data/HSP90/cocry_dataset/1uy6_PU3_LIG.pdb
27 29 1                 
SMALL
USER_CHARGES
@<TRIPOS>ATOM
1	  C1	4.942	12.043	23.707	C.2	1	UNK0	0.000	
2	  N1	4.469	13.103	24.346	N.2	1	UNK0	0.000	
3	  C2	5.559	13.899	24.615	C.2	1	UNK0	0.000	
4	  C3	5.703	15.117	25.299	C.2	1	UNK0	0.000	
5	  N2	4.637	15.803	25.873	N.pl3	1	UNK0	0.000	
6	  N3	6.934	15.663	25.406	N.2	1	UNK0	0.000	
7	  C4	7.974	15.002	24.860	C.2	1	UNK0	0.000	
8	  N4	7.953	13.847	24.172	N.2	1	UNK0	0.000	
9	  C5	6.715	13.336	24.097	C.2	1	UNK0	0.000	
10	  N5	6.317	12.148	23.528	N.pl3	1	UNK0	0.000	
11	  C6	4.094	10.877	23.285	C.3	1	UNK0	0.000	
12	  C7	1.479	9.539	25.737	C.2	1	UNK0	0.000	
13	  C8	2.690	9.743	25.059	C.2	1	UNK0	0.000	
14	  C9	2.823	10.748	24.094	C.2	1	UNK0	0.000	
15	 C10	1.738	11.599	23.846	C.2	1	UNK0	0.000	
16	 C11	0.533	11.446	24.540	C.2	1	UNK0	0.000	
17	 C12	0.401	10.416	25.500	C.2	1	UNK0	0.000	
18	 C13	2.296	8.254	27.583	C.3	1	UNK0	0.000	
19	  O1	1.291	8.495	26.606	O.3	1	UNK0	0.000	
20	  O2	-0.846	10.319	26.077	O.3	1	UNK0	0.000	
21	 C14	-0.942	10.586	27.470	C.3	1	UNK0	0.000	
22	  O3	-0.571	12.243	24.344	O.3	1	UNK0	0.000	
23	 C15	-1.238	12.151	23.093	C.3	1	UNK0	0.000	
24	 C16	7.188	11.202	22.847	C.3	1	UNK0	0.000	
25	 C17	7.946	10.230	23.756	C.3	1	UNK0	0.000	
26	 C18	7.235	8.886	23.897	C.3	1	UNK0	0.000	
27	 C19	8.245	7.747	23.918	C.3	1	UNK0	0.000	
@<TRIPOS>BOND
1 1 2 2
2 1 10 1
3 1 11 1
4 2 3 1
5 3 4 1
6 3 9 2
7 4 5 1
8 4 6 2
9 6 7 1
10 7 8 2
11 8 9 1
12 9 10 1
13 10 24 1
14 11 14 1
15 12 13 1
16 12 17 2
17 12 19 1
18 13 14 2
19 14 15 1
20 15 16 2
21 16 17 1
22 16 22 1
23 17 20 1
24 18 19 1
25 20 21 1
26 22 23 1
27 24 25 1
28 25 26 1
29 26 27 1
@<TRIPOS>SUBSTRUCTURE
1	UNK0	1	GROUP	1 ****	UNK
