# created with PyMOL 2.5.0
@<TRIPOS>MOLECULE
data/HSP90/cocry_dataset/1uy6_PU3_LIG.pdb
27 29 1                 
SMALL
USER_CHARGES
@<TRIPOS>ATOM
1	  C1	6.764	12.856	23.958	C.2	1	UNK0	0.000	
2	  N1	5.442	12.793	23.916	N.2	1	UNK0	0.000	
3	  C2	4.988	13.901	24.594	C.2	1	UNK0	0.000	
4	  C3	3.701	14.358	24.920	C.2	1	UNK0	0.000	
5	  N2	2.536	13.688	24.558	N.pl3	1	UNK0	0.000	
6	  N3	3.575	15.509	25.617	N.2	1	UNK0	0.000	
7	  C4	4.696	16.161	25.979	C.2	1	UNK0	0.000	
8	  N4	5.972	15.830	25.709	N.2	1	UNK0	0.000	
9	  C5	6.052	14.679	25.025	C.2	1	UNK0	0.000	
10	  N5	7.182	14.003	24.626	N.pl3	1	UNK0	0.000	
11	  C6	7.668	11.797	23.396	C.3	1	UNK0	0.000	
12	  C7	5.220	8.905	23.930	C.2	1	UNK0	0.000	
13	  C8	5.740	10.178	23.655	C.2	1	UNK0	0.000	
14	  C9	7.120	10.398	23.572	C.2	1	UNK0	0.000	
15	 C10	7.990	9.310	23.711	C.2	1	UNK0	0.000	
16	 C11	7.497	8.022	23.942	C.2	1	UNK0	0.000	
17	 C12	6.102	7.811	24.044	C.2	1	UNK0	0.000	
18	 C13	3.168	9.602	24.945	C.3	1	UNK0	0.000	
19	  O1	3.880	8.685	24.124	O.3	1	UNK0	0.000	
20	  O2	5.731	6.516	24.333	O.3	1	UNK0	0.000	
21	 C14	5.165	5.750	23.278	C.3	1	UNK0	0.000	
22	  O3	8.294	6.910	24.092	O.3	1	UNK0	0.000	
23	 C15	8.956	6.412	22.937	C.3	1	UNK0	0.000	
24	 C16	8.552	14.438	24.849	C.3	1	UNK0	0.000	
25	 C17	9.006	14.463	26.312	C.3	1	UNK0	0.000	
26	 C18	10.130	15.467	26.559	C.3	1	UNK0	0.000	
27	 C19	11.448	14.744	26.800	C.3	1	UNK0	0.000	
@<TRIPOS>BOND
1 1 2 2
2 1 10 1
3 1 11 1
4 2 3 1
5 3 4 1
6 3 9 2
7 4 5 1
8 4 6 2
9 6 7 1
10 7 8 2
11 8 9 1
12 9 10 1
13 10 24 1
14 11 14 1
15 12 13 1
16 12 17 2
17 12 19 1
18 13 14 2
19 14 15 1
20 15 16 2
21 16 17 1
22 16 22 1
23 17 20 1
24 18 19 1
25 20 21 1
26 22 23 1
27 24 25 1
28 25 26 1
29 26 27 1
@<TRIPOS>SUBSTRUCTURE
1	UNK0	1	GROUP	1 ****	UNK
