# created with PyMOL 2.5.0
@<TRIPOS>MOLECULE
data/HSP90/cocry_dataset/1uy6_PU3_LIG.pdb
52 54 1                 
SMALL
USER_CHARGES
@<TRIPOS>ATOM
1	 H01	1.636	14.064	24.818	 H	1	UNK0	0.000	
2	 H12	5.881	5.671	22.460	 H	1	UNK0	0.000	
3	 H04	8.610	11.848	23.942	 H	1	UNK0	0.000	
4	 H03	4.553	17.070	26.563	 H	1	UNK0	0.000	
5	 H02	2.592	12.826	24.035	 H	1	UNK0	0.000	
6	 H11	4.258	6.239	22.921	 H	1	UNK0	0.000	
7	 H09	3.718	9.762	25.873	 H	1	UNK0	0.000	
8	 H08	2.183	9.196	25.172	 H	1	UNK0	0.000	
9	 H15	8.393	5.574	22.527	 H	1	UNK0	0.000	
10	 H07	9.066	9.469	23.639	 H	1	UNK0	0.000	
11	 H05	7.805	11.985	22.331	 H	1	UNK0	0.000	
12	 H06	5.056	11.013	23.503	 H	1	UNK0	0.000	
13	 H23	12.199	15.460	27.133	 H	1	UNK0	0.000	
14	 H14	9.958	6.079	23.208	 H	1	UNK0	0.000	
15	 H18	9.212	13.764	24.303	 H	1	UNK0	0.000	
16	 H17	8.598	15.471	24.504	 H	1	UNK0	0.000	
17	 H16	9.027	7.203	22.189	 H	1	UNK0	0.000	
18	 H19	9.387	13.472	26.557	 H	1	UNK0	0.000	
19	 H22	10.230	16.116	25.689	 H	1	UNK0	0.000	
20	 H21	9.886	16.058	27.442	 H	1	UNK0	0.000	
21	 H20	8.154	14.730	26.939	 H	1	UNK0	0.000	
22	 H10	3.058	10.551	24.419	 H	1	UNK0	0.000	
23	 H13	4.919	4.753	23.644	 H	1	UNK0	0.000	
24	 H25	11.780	14.274	25.874	 H	1	UNK0	0.000	
25	 H24	11.309	13.980	27.566	 H	1	UNK0	0.000	
26	  C1	6.764	12.856	23.958	C.2	1	UNK0	0.000	
27	  N1	5.442	12.793	23.916	N.2	1	UNK0	0.000	
28	  C2	4.988	13.901	24.594	C.2	1	UNK0	0.000	
29	  C3	3.701	14.358	24.920	C.2	1	UNK0	0.000	
30	  N2	2.536	13.688	24.558	N.pl3	1	UNK0	0.000	
31	  N3	3.575	15.509	25.617	N.2	1	UNK0	0.000	
32	  C4	4.696	16.161	25.979	C.2	1	UNK0	0.000	
33	  N4	5.972	15.830	25.709	N.2	1	UNK0	0.000	
34	  C5	6.052	14.679	25.025	C.2	1	UNK0	0.000	
35	  N5	7.182	14.003	24.626	N.pl3	1	UNK0	0.000	
36	  C6	7.668	11.797	23.396	C.3	1	UNK0	0.000	
37	  C7	5.220	8.905	23.930	C.2	1	UNK0	0.000	
38	  C8	5.740	10.178	23.655	C.2	1	UNK0	0.000	
39	  C9	7.120	10.398	23.572	C.2	1	UNK0	0.000	
40	 C10	7.990	9.310	23.711	C.2	1	UNK0	0.000	
41	 C11	7.497	8.022	23.942	C.2	1	UNK0	0.000	
42	 C12	6.102	7.811	24.044	C.2	1	UNK0	0.000	
43	 C13	3.168	9.602	24.945	C.3	1	UNK0	0.000	
44	  O1	3.880	8.685	24.124	O.3	1	UNK0	0.000	
45	  O2	5.731	6.516	24.333	O.3	1	UNK0	0.000	
46	 C14	5.165	5.750	23.278	C.3	1	UNK0	0.000	
47	  O3	8.294	6.910	24.092	O.3	1	UNK0	0.000	
48	 C15	8.956	6.412	22.937	C.3	1	UNK0	0.000	
49	 C16	8.552	14.438	24.849	C.3	1	UNK0	0.000	
50	 C17	9.006	14.463	26.312	C.3	1	UNK0	0.000	
51	 C18	10.130	15.467	26.559	C.3	1	UNK0	0.000	
52	 C19	11.448	14.744	26.800	C.3	1	UNK0	0.000	
@<TRIPOS>BOND
1 26 27 2
2 26 35 1
3 27 28 1
4 28 29 1
5 28 34 2
6 29 30 1
7 29 31 2
8 1 30 1
9 5 30 1
10 31 32 1
11 4 32 1
12 32 33 2
13 33 34 1
14 34 35 1
15 35 49 1
16 3 36 1
17 11 36 1
18 26 36 1
19 37 38 1
20 37 42 2
21 12 38 1
22 38 39 2
23 36 39 1
24 39 40 1
25 10 40 1
26 40 41 2
27 41 42 1
28 41 47 1
29 42 45 1
30 7 43 1
31 8 43 1
32 22 43 1
33 43 44 1
34 37 44 1
35 45 46 1
36 2 46 1
37 6 46 1
38 23 46 1
39 47 48 1
40 9 48 1
41 14 48 1
42 17 48 1
43 15 49 1
44 16 49 1
45 49 50 1
46 18 50 1
47 21 50 1
48 50 51 1
49 19 51 1
50 20 51 1
51 51 52 1
52 13 52 1
53 24 52 1
54 25 52 1
@<TRIPOS>SUBSTRUCTURE
1	UNK0	1	GROUP	1 ****	UNK
