# created with PyMOL 2.5.0
@<TRIPOS>MOLECULE
data/HSP90/cocry_dataset/1uy6_PU3_LIG.pdb
27 29 1                 
SMALL
USER_CHARGES
@<TRIPOS>ATOM
1	  C1	5.224	12.054	23.778	C.2	1	UNK0	0.000	
2	  N1	4.752	13.132	24.388	N.2	1	UNK0	0.000	
3	  C2	5.836	13.950	24.604	C.2	1	UNK0	0.000	
4	  C3	5.979	15.195	25.238	C.2	1	UNK0	0.000	
5	  N2	4.917	15.889	25.810	N.pl3	1	UNK0	0.000	
6	  N3	7.206	15.759	25.299	N.2	1	UNK0	0.000	
7	  C4	8.241	15.091	24.755	C.2	1	UNK0	0.000	
8	  N4	8.221	13.910	24.111	N.2	1	UNK0	0.000	
9	  C5	6.989	13.382	24.082	C.2	1	UNK0	0.000	
10	  N5	6.594	12.170	23.566	N.pl3	1	UNK0	0.000	
11	  C6	4.382	10.864	23.419	C.3	1	UNK0	0.000	
12	  C7	0.753	12.060	23.596	C.2	1	UNK0	0.000	
13	  C8	2.059	11.829	23.143	C.2	1	UNK0	0.000	
14	  C9	2.941	11.006	23.853	C.2	1	UNK0	0.000	
15	 C10	2.485	10.359	25.009	C.2	1	UNK0	0.000	
16	 C11	1.172	10.537	25.459	C.2	1	UNK0	0.000	
17	 C12	0.293	11.385	24.746	C.2	1	UNK0	0.000	
18	 C13	-0.192	12.892	21.562	C.3	1	UNK0	0.000	
19	  O1	-0.093	12.946	22.979	O.3	1	UNK0	0.000	
20	  O2	-0.954	11.535	25.312	O.3	1	UNK0	0.000	
21	 C14	-2.031	10.831	24.710	C.3	1	UNK0	0.000	
22	  O3	0.660	9.936	26.585	O.3	1	UNK0	0.000	
23	 C15	0.780	8.524	26.693	C.3	1	UNK0	0.000	
24	 C16	7.462	11.210	22.901	C.3	1	UNK0	0.000	
25	 C17	8.058	10.124	23.804	C.3	1	UNK0	0.000	
26	 C18	7.760	8.714	23.298	C.3	1	UNK0	0.000	
27	 C19	7.951	7.695	24.413	C.3	1	UNK0	0.000	
@<TRIPOS>BOND
1 1 2 2
2 1 10 1
3 1 11 1
4 2 3 1
5 3 4 1
6 3 9 2
7 4 5 1
8 4 6 2
9 6 7 1
10 7 8 2
11 8 9 1
12 9 10 1
13 10 24 1
14 11 14 1
15 12 13 1
16 12 17 2
17 12 19 1
18 13 14 2
19 14 15 1
20 15 16 2
21 16 17 1
22 16 22 1
23 17 20 1
24 18 19 1
25 20 21 1
26 22 23 1
27 24 25 1
28 25 26 1
29 26 27 1
@<TRIPOS>SUBSTRUCTURE
1	UNK0	1	GROUP	1 ****	UNK
