# created with PyMOL 2.5.0
@<TRIPOS>MOLECULE
data/HSP90/cocry_dataset/1uy7_PU4_LIG.pdb
23 25 1                 
SMALL
USER_CHARGES
@<TRIPOS>ATOM
1	  N1	7.086	13.918	24.471	N.pl3	1	UNK0	0.000	
2	  C1	5.983	14.572	24.969	C.2	1	UNK0	0.000	
3	  N2	5.949	15.719	25.670	N.2	1	UNK0	0.000	
4	  C2	4.683	16.073	25.964	C.2	1	UNK0	0.000	
5	  N3	3.538	15.444	25.623	N.2	1	UNK0	0.000	
6	  C3	3.626	14.292	24.921	C.2	1	UNK0	0.000	
7	  C4	4.898	13.807	24.575	C.2	1	UNK0	0.000	
8	  N4	5.318	12.701	23.874	N.2	1	UNK0	0.000	
9	  C5	6.642	12.757	23.849	C.2	1	UNK0	0.000	
10	  N5	2.440	13.672	24.541	N.pl3	1	UNK0	0.000	
11	  C6	8.435	14.438	24.615	C.3	1	UNK0	0.000	
12	  C7	9.050	14.184	25.990	C.3	1	UNK0	0.000	
13	  C8	11.389	14.815	26.639	C.3	1	UNK0	0.000	
14	  C9	9.972	15.323	26.420	C.3	1	UNK0	0.000	
15	 C10	7.496	11.712	23.169	C.3	1	UNK0	0.000	
16	 C11	7.185	10.287	23.571	C.2	1	UNK0	0.000	
17	 C12	8.213	9.378	23.851	C.2	1	UNK0	0.000	
18	 C13	7.928	8.035	24.127	C.2	1	UNK0	0.000	
19	 C14	6.608	7.587	24.137	C.2	1	UNK0	0.000	
20	 C15	5.576	8.512	23.969	C.2	1	UNK0	0.000	
21	 C16	5.858	9.852	23.692	C.2	1	UNK0	0.000	
22	  O1	6.201	6.290	24.289	O.3	1	UNK0	0.000	
23	 C17	6.265	5.752	25.605	C.3	1	UNK0	0.000	
@<TRIPOS>BOND
1 1 2 1
2 1 9 1
3 1 11 1
4 2 3 1
5 2 7 2
6 3 4 2
7 4 5 1
8 5 6 2
9 6 7 1
10 6 10 1
11 7 8 1
12 8 9 2
13 9 15 1
14 11 12 1
15 12 14 1
16 13 14 1
17 15 16 1
18 16 17 1
19 16 21 2
20 17 18 2
21 18 19 1
22 19 20 2
23 19 22 1
24 20 21 1
25 22 23 1
@<TRIPOS>SUBSTRUCTURE
1	UNK0	1	GROUP	1 ****	UNK
