# created with PyMOL 2.5.0
@<TRIPOS>MOLECULE
data/HSP90/cocry_dataset/1uy7_PU4_LIG.pdb
44 46 1                 
SMALL
USER_CHARGES
@<TRIPOS>ATOM
1	 H10	11.747	14.334	25.729	 H	1	UNK0	0.000	
2	 H02	1.553	14.076	24.804	 H	1	UNK0	0.000	
3	 H04	8.373	15.519	24.491	 H	1	UNK0	0.000	
4	 H01	4.568	16.983	26.552	 H	1	UNK0	0.000	
5	 H06	9.645	13.272	25.931	 H	1	UNK0	0.000	
6	 H05	9.068	13.968	23.863	 H	1	UNK0	0.000	
7	 H09	11.396	14.096	27.458	 H	1	UNK0	0.000	
8	 H08	12.040	15.653	26.886	 H	1	UNK0	0.000	
9	 H03	2.467	12.819	24.002	 H	1	UNK0	0.000	
10	 H07	8.249	14.081	26.722	 H	1	UNK0	0.000	
11	 H13	8.524	11.903	23.477	 H	1	UNK0	0.000	
12	 H12	9.598	15.754	27.349	 H	1	UNK0	0.000	
13	 H11	9.987	16.077	25.633	 H	1	UNK0	0.000	
14	 H14	7.351	11.801	22.092	 H	1	UNK0	0.000	
15	 H18	5.042	10.564	23.569	 H	1	UNK0	0.000	
16	 H17	4.540	8.185	24.056	 H	1	UNK0	0.000	
17	 H16	8.741	7.339	24.334	 H	1	UNK0	0.000	
18	 H19	6.541	6.540	26.305	 H	1	UNK0	0.000	
19	 H15	9.248	9.720	23.854	 H	1	UNK0	0.000	
20	 H21	7.011	4.959	25.638	 H	1	UNK0	0.000	
21	 H20	5.291	5.347	25.880	 H	1	UNK0	0.000	
22	  N1	7.086	13.918	24.471	N.pl3	1	UNK0	0.000	
23	  C1	5.983	14.572	24.969	C.2	1	UNK0	0.000	
24	  N2	5.949	15.719	25.670	N.2	1	UNK0	0.000	
25	  C2	4.683	16.073	25.964	C.2	1	UNK0	0.000	
26	  N3	3.538	15.444	25.623	N.2	1	UNK0	0.000	
27	  C3	3.626	14.292	24.921	C.2	1	UNK0	0.000	
28	  C4	4.898	13.807	24.575	C.2	1	UNK0	0.000	
29	  N4	5.318	12.701	23.874	N.2	1	UNK0	0.000	
30	  C5	6.642	12.757	23.849	C.2	1	UNK0	0.000	
31	  N5	2.440	13.672	24.541	N.pl3	1	UNK0	0.000	
32	  C6	8.435	14.438	24.615	C.3	1	UNK0	0.000	
33	  C7	9.050	14.184	25.990	C.3	1	UNK0	0.000	
34	  C8	11.389	14.815	26.639	C.3	1	UNK0	0.000	
35	  C9	9.972	15.323	26.420	C.3	1	UNK0	0.000	
36	 C10	7.496	11.712	23.169	C.3	1	UNK0	0.000	
37	 C11	7.185	10.287	23.571	C.2	1	UNK0	0.000	
38	 C12	8.213	9.378	23.851	C.2	1	UNK0	0.000	
39	 C13	7.928	8.035	24.127	C.2	1	UNK0	0.000	
40	 C14	6.608	7.587	24.137	C.2	1	UNK0	0.000	
41	 C15	5.576	8.512	23.969	C.2	1	UNK0	0.000	
42	 C16	5.858	9.852	23.692	C.2	1	UNK0	0.000	
43	  O1	6.201	6.290	24.289	O.3	1	UNK0	0.000	
44	 C17	6.265	5.752	25.605	C.3	1	UNK0	0.000	
@<TRIPOS>BOND
1 22 23 1
2 22 30 1
3 23 24 1
4 23 28 2
5 24 25 2
6 4 25 1
7 25 26 1
8 26 27 2
9 27 28 1
10 27 31 1
11 28 29 1
12 29 30 2
13 30 36 1
14 2 31 1
15 9 31 1
16 3 32 1
17 6 32 1
18 22 32 1
19 5 33 1
20 10 33 1
21 32 33 1
22 1 34 1
23 7 34 1
24 8 34 1
25 34 35 1
26 12 35 1
27 13 35 1
28 33 35 1
29 11 36 1
30 14 36 1
31 36 37 1
32 37 38 1
33 37 42 2
34 19 38 1
35 38 39 2
36 17 39 1
37 39 40 1
38 40 41 2
39 40 43 1
40 16 41 1
41 41 42 1
42 15 42 1
43 43 44 1
44 18 44 1
45 20 44 1
46 21 44 1
@<TRIPOS>SUBSTRUCTURE
1	UNK0	1	GROUP	1 ****	UNK
