# created with PyMOL 2.5.0
@<TRIPOS>MOLECULE
data/HSP90/cocry_dataset/1uy7_PU4_LIG.pdb
23 25 1                 
SMALL
USER_CHARGES
@<TRIPOS>ATOM
1	  N1	6.438	12.209	23.575	N.pl3	1	UNK0	0.000	
2	  C1	6.836	13.416	24.102	C.2	1	UNK0	0.000	
3	  N2	8.064	13.963	24.082	N.2	1	UNK0	0.000	
4	  C2	8.068	15.173	24.673	C.2	1	UNK0	0.000	
5	  N3	7.030	15.843	25.217	N.2	1	UNK0	0.000	
6	  C3	5.816	15.248	25.216	C.2	1	UNK0	0.000	
7	  C4	5.689	13.970	24.647	C.2	1	UNK0	0.000	
8	  N4	4.620	13.122	24.482	N.2	1	UNK0	0.000	
9	  C5	5.089	12.046	23.868	C.2	1	UNK0	0.000	
10	  N5	4.745	15.962	25.743	N.pl3	1	UNK0	0.000	
11	  C6	7.345	11.337	22.848	C.3	1	UNK0	0.000	
12	  C7	8.068	10.324	23.734	C.3	1	UNK0	0.000	
13	  C8	7.790	7.909	24.349	C.3	1	UNK0	0.000	
14	  C9	7.924	8.900	23.203	C.3	1	UNK0	0.000	
15	 C10	4.221	10.864	23.501	C.3	1	UNK0	0.000	
16	 C11	2.734	11.120	23.608	C.2	1	UNK0	0.000	
17	 C12	2.123	12.135	22.859	C.2	1	UNK0	0.000	
18	 C13	0.767	12.436	23.032	C.2	1	UNK0	0.000	
19	 C14	0.001	11.717	23.948	C.2	1	UNK0	0.000	
20	 C15	0.578	10.634	24.613	C.2	1	UNK0	0.000	
21	 C16	1.932	10.333	24.445	C.2	1	UNK0	0.000	
22	  O1	-1.299	11.976	24.287	O.3	1	UNK0	0.000	
23	 C17	-2.045	10.889	24.822	C.3	1	UNK0	0.000	
@<TRIPOS>BOND
1 1 2 1
2 1 9 1
3 1 11 1
4 2 3 1
5 2 7 2
6 3 4 2
7 4 5 1
8 5 6 2
9 6 7 1
10 6 10 1
11 7 8 1
12 8 9 2
13 9 15 1
14 11 12 1
15 12 14 1
16 13 14 1
17 15 16 1
18 16 17 1
19 16 21 2
20 17 18 2
21 18 19 1
22 19 20 2
23 19 22 1
24 20 21 1
25 22 23 1
@<TRIPOS>SUBSTRUCTURE
1	UNK0	1	GROUP	1 ****	UNK
