# created with PyMOL 2.5.0
@<TRIPOS>MOLECULE
data/HSP90/cocry_dataset/1uy7_PU4_LIG.pdb
44 46 1                 
SMALL
USER_CHARGES
@<TRIPOS>ATOM
1	 H10	8.415	7.230	23.210	 H	1	UNK0	0.000	
2	 H02	5.228	17.035	26.148	 H	1	UNK0	0.000	
3	 H04	7.878	11.845	22.344	 H	1	UNK0	0.000	
4	 H01	9.216	15.458	24.665	 H	1	UNK0	0.000	
5	 H06	7.817	10.636	24.779	 H	1	UNK0	0.000	
6	 H05	6.463	10.724	22.185	 H	1	UNK0	0.000	
7	 H09	7.705	7.136	24.839	 H	1	UNK0	0.000	
8	 H08	9.055	8.251	24.519	 H	1	UNK0	0.000	
9	 H03	4.035	15.803	25.803	 H	1	UNK0	0.000	
10	 H07	8.866	10.157	23.400	 H	1	UNK0	0.000	
11	 H13	4.131	10.291	24.328	 H	1	UNK0	0.000	
12	 H12	6.774	8.703	22.733	 H	1	UNK0	0.000	
13	 H11	6.354	8.893	24.461	 H	1	UNK0	0.000	
14	 H14	4.170	10.751	22.570	 H	1	UNK0	0.000	
15	 H18	2.572	12.784	21.971	 H	1	UNK0	0.000	
16	 H17	0.147	13.291	22.038	 H	1	UNK0	0.000	
17	 H16	-0.267	10.923	25.596	 H	1	UNK0	0.000	
18	 H19	-2.903	13.259	22.361	 H	1	UNK0	0.000	
19	 H15	2.162	10.419	25.538	 H	1	UNK0	0.000	
20	 H21	-2.304	11.673	21.821	 H	1	UNK0	0.000	
21	 H20	-1.242	13.099	21.745	 H	1	UNK0	0.000	
22	  N1	6.302	12.225	23.606	N.pl3	1	UNK0	0.000	
23	  C1	6.816	13.396	24.114	C.2	1	UNK0	0.000	
24	  N2	8.086	13.833	24.063	N.2	1	UNK0	0.000	
25	  C2	8.210	15.042	24.644	C.2	1	UNK0	0.000	
26	  N3	7.246	15.803	25.204	N.2	1	UNK0	0.000	
27	  C3	5.985	15.318	25.234	C.2	1	UNK0	0.000	
28	  C4	5.734	14.052	24.679	C.2	1	UNK0	0.000	
29	  N4	4.591	13.299	24.544	N.2	1	UNK0	0.000	
30	  C5	4.951	12.182	23.929	C.2	1	UNK0	0.000	
31	  N5	4.992	16.125	25.778	N.pl3	1	UNK0	0.000	
32	  C6	7.113	11.272	22.867	C.3	1	UNK0	0.000	
33	  C7	7.841	10.264	23.755	C.3	1	UNK0	0.000	
34	  C8	8.155	7.800	24.101	C.3	1	UNK0	0.000	
35	  C9	7.165	8.895	23.733	C.3	1	UNK0	0.000	
36	 C10	3.974	11.079	23.591	C.3	1	UNK0	0.000	
37	 C11	2.518	11.477	23.690	C.2	1	UNK0	0.000	
38	 C12	1.715	11.012	24.740	C.2	1	UNK0	0.000	
39	 C13	0.346	11.300	24.777	C.2	1	UNK0	0.000	
40	 C14	-0.236	12.067	23.769	C.2	1	UNK0	0.000	
41	 C15	0.580	12.625	22.784	C.2	1	UNK0	0.000	
42	 C16	1.947	12.337	22.743	C.2	1	UNK0	0.000	
43	  O1	-1.571	12.333	23.631	O.3	1	UNK0	0.000	
44	 C17	-2.032	12.607	22.312	C.3	1	UNK0	0.000	
@<TRIPOS>BOND
1 22 23 1
2 22 30 1
3 23 24 1
4 23 28 2
5 24 25 2
6 4 25 1
7 25 26 1
8 26 27 2
9 27 28 1
10 27 31 1
11 28 29 1
12 29 30 2
13 30 36 1
14 2 31 1
15 9 31 1
16 3 32 1
17 6 32 1
18 22 32 1
19 5 33 1
20 10 33 1
21 32 33 1
22 1 34 1
23 7 34 1
24 8 34 1
25 34 35 1
26 12 35 1
27 13 35 1
28 33 35 1
29 11 36 1
30 14 36 1
31 36 37 1
32 37 38 1
33 37 42 2
34 19 38 1
35 38 39 2
36 17 39 1
37 39 40 1
38 40 41 2
39 40 43 1
40 16 41 1
41 41 42 1
42 15 42 1
43 43 44 1
44 18 44 1
45 20 44 1
46 21 44 1
@<TRIPOS>SUBSTRUCTURE
1	UNK0	1	GROUP	1 ****	UNK
