# created with PyMOL 2.5.0
@<TRIPOS>MOLECULE
data/HSP90/cocry_dataset/1uy7_PU4_LIG.pdb
44 46 1                 
SMALL
USER_CHARGES
@<TRIPOS>ATOM
1	  N1	6.302	12.225	23.606	N.pl3	1	UNK0	0.000	
2	  C1	6.816	13.396	24.114	C.2	1	UNK0	0.000	
3	  N2	8.086	13.833	24.063	N.2	1	UNK0	0.000	
4	  C2	8.210	15.042	24.644	C.2	1	UNK0	0.000	
5	  N3	7.246	15.803	25.204	N.2	1	UNK0	0.000	
6	  C3	5.985	15.318	25.234	C.2	1	UNK0	0.000	
7	  C4	5.734	14.052	24.679	C.2	1	UNK0	0.000	
8	  N4	4.591	13.299	24.544	N.2	1	UNK0	0.000	
9	  C5	4.951	12.182	23.929	C.2	1	UNK0	0.000	
10	  N5	4.992	16.125	25.778	N.pl3	1	UNK0	0.000	
11	  C6	7.113	11.272	22.867	C.3	1	UNK0	0.000	
12	  C7	7.841	10.264	23.755	C.3	1	UNK0	0.000	
13	  C8	8.155	7.800	24.101	C.3	1	UNK0	0.000	
14	  C9	7.165	8.895	23.733	C.3	1	UNK0	0.000	
15	 C10	3.974	11.079	23.591	C.3	1	UNK0	0.000	
16	 C11	2.518	11.477	23.690	C.2	1	UNK0	0.000	
17	 C12	1.715	11.012	24.740	C.2	1	UNK0	0.000	
18	 C13	0.346	11.300	24.777	C.2	1	UNK0	0.000	
19	 C14	-0.236	12.067	23.769	C.2	1	UNK0	0.000	
20	 C15	0.580	12.625	22.784	C.2	1	UNK0	0.000	
21	 C16	1.947	12.337	22.743	C.2	1	UNK0	0.000	
22	  O1	-1.571	12.333	23.631	O.3	1	UNK0	0.000	
23	 C17	-2.032	12.607	22.312	C.3	1	UNK0	0.000	
24	 H01	9.216	15.458	24.665	 H	1	UNK0	0.000	
25	 H02	5.228	17.035	26.148	 H	1	UNK0	0.000	
26	 H03	4.035	15.803	25.803	 H	1	UNK0	0.000	
27	 H04	6.433	10.703	22.232	 H	1	UNK0	0.000	
28	 H05	7.856	11.824	22.292	 H	1	UNK0	0.000	
29	 H06	8.854	10.146	23.371	 H	1	UNK0	0.000	
30	 H07	7.850	10.637	24.779	 H	1	UNK0	0.000	
31	 H08	9.055	8.251	24.519	 H	1	UNK0	0.000	
32	 H09	7.705	7.136	24.839	 H	1	UNK0	0.000	
33	 H10	8.415	7.230	23.210	 H	1	UNK0	0.000	
34	 H11	6.354	8.893	24.461	 H	1	UNK0	0.000	
35	 H12	6.774	8.703	22.733	 H	1	UNK0	0.000	
36	 H13	4.131	10.291	24.328	 H	1	UNK0	0.000	
37	 H14	4.170	10.751	22.570	 H	1	UNK0	0.000	
38	 H15	2.162	10.419	25.538	 H	1	UNK0	0.000	
39	 H16	-0.267	10.923	25.596	 H	1	UNK0	0.000	
40	 H17	0.147	13.291	22.038	 H	1	UNK0	0.000	
41	 H18	2.572	12.784	21.971	 H	1	UNK0	0.000	
42	 H19	-2.903	13.259	22.361	 H	1	UNK0	0.000	
43	 H20	-1.242	13.099	21.745	 H	1	UNK0	0.000	
44	 H21	-2.304	11.673	21.821	 H	1	UNK0	0.000	
@<TRIPOS>BOND
1 13 14 1
2 12 14 1
3 11 12 1
4 1 11 1
5 1 2 1
6 1 9 1
7 2 3 1
8 2 7 2
9 3 4 2
10 4 5 1
11 5 6 2
12 6 7 1
13 6 10 1
14 7 8 1
15 8 9 2
16 9 15 1
17 15 16 1
18 16 17 1
19 16 21 2
20 17 18 2
21 18 19 1
22 19 20 2
23 19 22 1
24 20 21 1
25 22 23 1
26 4 24 1
27 10 25 1
28 10 26 1
29 11 27 1
30 11 28 1
31 12 29 1
32 12 30 1
33 13 31 1
34 13 32 1
35 13 33 1
36 14 34 1
37 14 35 1
38 15 36 1
39 15 37 1
40 17 38 1
41 18 39 1
42 20 40 1
43 21 41 1
44 23 42 1
45 23 43 1
46 23 44 1
@<TRIPOS>SUBSTRUCTURE
1	UNK0	1	GROUP	1 ****	UNK
