# created with PyMOL 2.5.0
@<TRIPOS>MOLECULE
data/HSP90/cocry_dataset/1uy7_PU4_LIG.pdb
23 25 1                 
SMALL
USER_CHARGES
@<TRIPOS>ATOM
1	  N1	6.302	12.225	23.606	N.pl3	1	UNK0	0.000	
2	  C1	6.816	13.396	24.114	C.2	1	UNK0	0.000	
3	  N2	8.086	13.833	24.063	N.2	1	UNK0	0.000	
4	  C2	8.210	15.042	24.644	C.2	1	UNK0	0.000	
5	  N3	7.246	15.803	25.204	N.2	1	UNK0	0.000	
6	  C3	5.985	15.318	25.234	C.2	1	UNK0	0.000	
7	  C4	5.734	14.052	24.679	C.2	1	UNK0	0.000	
8	  N4	4.591	13.299	24.544	N.2	1	UNK0	0.000	
9	  C5	4.951	12.182	23.929	C.2	1	UNK0	0.000	
10	  N5	4.992	16.125	25.778	N.pl3	1	UNK0	0.000	
11	  C6	7.113	11.272	22.867	C.3	1	UNK0	0.000	
12	  C7	7.841	10.264	23.755	C.3	1	UNK0	0.000	
13	  C8	8.155	7.800	24.101	C.3	1	UNK0	0.000	
14	  C9	7.165	8.895	23.733	C.3	1	UNK0	0.000	
15	 C10	3.974	11.079	23.591	C.3	1	UNK0	0.000	
16	 C11	2.518	11.477	23.690	C.2	1	UNK0	0.000	
17	 C12	1.715	11.012	24.740	C.2	1	UNK0	0.000	
18	 C13	0.346	11.300	24.777	C.2	1	UNK0	0.000	
19	 C14	-0.236	12.067	23.769	C.2	1	UNK0	0.000	
20	 C15	0.580	12.625	22.784	C.2	1	UNK0	0.000	
21	 C16	1.947	12.337	22.743	C.2	1	UNK0	0.000	
22	  O1	-1.571	12.333	23.631	O.3	1	UNK0	0.000	
23	 C17	-2.032	12.607	22.312	C.3	1	UNK0	0.000	
@<TRIPOS>BOND
1 1 2 1
2 1 9 1
3 1 11 1
4 2 3 1
5 2 7 2
6 3 4 2
7 4 5 1
8 5 6 2
9 6 7 1
10 6 10 1
11 7 8 1
12 8 9 2
13 9 15 1
14 11 12 1
15 12 14 1
16 13 14 1
17 15 16 1
18 16 17 1
19 16 21 2
20 17 18 2
21 18 19 1
22 19 20 2
23 19 22 1
24 20 21 1
25 22 23 1
@<TRIPOS>SUBSTRUCTURE
1	UNK0	1	GROUP	1 ****	UNK
