# created with PyMOL 2.5.0
@<TRIPOS>MOLECULE
data/HSP90/cocry_dataset/1uy8_PU5_LIG.pdb
23 25 1                 
SMALL
USER_CHARGES
@<TRIPOS>ATOM
1	  N1	6.313	12.196	23.576	N.pl3	1	UNK0	0.000	
2	  C1	6.790	13.365	24.124	C.2	1	UNK0	0.000	
3	  N2	8.057	13.812	24.130	N.2	1	UNK0	0.000	
4	  C2	8.146	15.011	24.733	C.2	1	UNK0	0.000	
5	  N3	7.155	15.752	25.272	N.2	1	UNK0	0.000	
6	  C3	5.898	15.251	25.251	C.2	1	UNK0	0.000	
7	  C4	5.682	13.999	24.650	C.2	1	UNK0	0.000	
8	  N4	4.547	13.247	24.446	N.2	1	UNK0	0.000	
9	  C5	4.949	12.140	23.822	C.2	1	UNK0	0.000	
10	  N5	4.883	16.027	25.798	N.pl3	1	UNK0	0.000	
11	  C6	7.167	11.256	22.878	C.3	1	UNK0	0.000	
12	  C7	7.863	10.222	23.765	C.3	1	UNK0	0.000	
13	  C8	8.172	7.754	24.140	C.3	1	UNK0	0.000	
14	  C9	7.196	8.845	23.734	C.3	1	UNK0	0.000	
15	 C10	4.018	11.018	23.451	C.3	1	UNK0	0.000	
16	 C11	2.581	11.290	23.835	C.2	1	UNK0	0.000	
17	 C12	2.050	10.770	25.023	C.2	1	UNK0	0.000	
18	 C13	0.688	10.888	25.297	C.2	1	UNK0	0.000	
19	 C14	-0.155	11.551	24.402	C.2	1	UNK0	0.000	
20	 C15	0.373	12.151	23.259	C.2	1	UNK0	0.000	
21	 C16	1.741	12.030	22.990	C.2	1	UNK0	0.000	
22	  O1	-0.332	12.858	22.323	O.3	1	UNK0	0.000	
23	 C17	-1.724	12.580	22.227	C.3	1	UNK0	0.000	
@<TRIPOS>BOND
1 1 2 1
2 1 9 1
3 1 11 1
4 2 3 1
5 2 7 2
6 3 4 2
7 4 5 1
8 5 6 2
9 6 7 1
10 6 10 1
11 7 8 1
12 8 9 2
13 9 15 1
14 11 12 1
15 12 14 1
16 13 14 1
17 15 16 1
18 16 17 1
19 16 21 2
20 17 18 2
21 18 19 1
22 19 20 2
23 20 21 1
24 20 22 1
25 22 23 1
@<TRIPOS>SUBSTRUCTURE
1	UNK0	1	GROUP	1 ****	UNK
