# created with PyMOL 2.5.0
@<TRIPOS>MOLECULE
data/HSP90/cocry_dataset/1uy8_PU5_LIG.pdb
23 25 1                 
SMALL
USER_CHARGES
@<TRIPOS>ATOM
1	  N1	7.137	13.904	24.527	N.pl3	1	UNK0	0.000	
2	  C1	6.021	14.562	24.991	C.2	1	UNK0	0.000	
3	  N2	5.975	15.713	25.683	N.2	1	UNK0	0.000	
4	  C2	4.705	16.072	25.943	C.2	1	UNK0	0.000	
5	  N3	3.567	15.442	25.584	N.2	1	UNK0	0.000	
6	  C3	3.668	14.280	24.898	C.2	1	UNK0	0.000	
7	  C4	4.949	13.800	24.573	C.2	1	UNK0	0.000	
8	  N4	5.379	12.693	23.875	N.2	1	UNK0	0.000	
9	  C5	6.712	12.752	23.883	C.2	1	UNK0	0.000	
10	  N5	2.491	13.644	24.523	N.pl3	1	UNK0	0.000	
11	  C6	8.480	14.411	24.722	C.3	1	UNK0	0.000	
12	  C7	9.017	14.307	26.150	C.3	1	UNK0	0.000	
13	  C8	11.447	14.769	26.612	C.3	1	UNK0	0.000	
14	  C9	10.059	15.376	26.489	C.3	1	UNK0	0.000	
15	 C10	7.587	11.696	23.264	C.3	1	UNK0	0.000	
16	 C11	7.181	10.291	23.647	C.2	1	UNK0	0.000	
17	 C12	8.151	9.304	23.869	C.2	1	UNK0	0.000	
18	 C13	7.773	7.977	24.066	C.2	1	UNK0	0.000	
19	 C14	6.422	7.623	24.073	C.2	1	UNK0	0.000	
20	 C15	5.442	8.606	23.942	C.2	1	UNK0	0.000	
21	 C16	5.827	9.937	23.746	C.2	1	UNK0	0.000	
22	  O1	4.090	8.401	23.968	O.3	1	UNK0	0.000	
23	 C17	3.270	9.560	24.056	C.3	1	UNK0	0.000	
@<TRIPOS>BOND
1 1 2 1
2 1 9 1
3 1 11 1
4 2 3 1
5 2 7 2
6 3 4 2
7 4 5 1
8 5 6 2
9 6 7 1
10 6 10 1
11 7 8 1
12 8 9 2
13 9 15 1
14 11 12 1
15 12 14 1
16 13 14 1
17 15 16 1
18 16 17 1
19 16 21 2
20 17 18 2
21 18 19 1
22 19 20 2
23 20 21 1
24 20 22 1
25 22 23 1
@<TRIPOS>SUBSTRUCTURE
1	UNK0	1	GROUP	1 ****	UNK
