# created with PyMOL 2.5.0
@<TRIPOS>MOLECULE
data/HSP90/cocry_dataset/1uy8_PU5_LIG.pdb
44 46 1                 
SMALL
USER_CHARGES
@<TRIPOS>ATOM
1	 H10	8.433	7.155	23.267	 H	1	UNK0	0.000	
2	 H02	5.098	16.926	26.204	 H	1	UNK0	0.000	
3	 H04	7.962	11.850	22.427	 H	1	UNK0	0.000	
4	 H01	9.146	15.439	24.795	 H	1	UNK0	0.000	
5	 H06	7.801	10.586	24.790	 H	1	UNK0	0.000	
6	 H05	6.556	10.721	22.152	 H	1	UNK0	0.000	
7	 H09	7.712	7.116	24.895	 H	1	UNK0	0.000	
8	 H08	9.074	8.208	24.550	 H	1	UNK0	0.000	
9	 H03	3.930	15.691	25.789	 H	1	UNK0	0.000	
10	 H07	8.894	10.115	23.427	 H	1	UNK0	0.000	
11	 H13	4.340	10.134	24.002	 H	1	UNK0	0.000	
12	 H12	6.838	8.645	22.724	 H	1	UNK0	0.000	
13	 H11	6.366	8.847	24.440	 H	1	UNK0	0.000	
14	 H14	4.067	10.866	22.373	 H	1	UNK0	0.000	
15	 H18	2.160	12.519	22.111	 H	1	UNK0	0.000	
16	 H17	-1.226	11.600	24.597	 H	1	UNK0	0.000	
17	 H16	0.279	10.462	26.213	 H	1	UNK0	0.000	
18	 H19	-2.255	13.486	21.937	 H	1	UNK0	0.000	
19	 H15	2.705	10.272	25.738	 H	1	UNK0	0.000	
20	 H21	-2.094	12.235	23.192	 H	1	UNK0	0.000	
21	 H20	-1.889	11.807	21.477	 H	1	UNK0	0.000	
22	  N1	6.313	12.196	23.576	N.pl3	1	UNK0	0.000	
23	  C1	6.790	13.365	24.124	C.2	1	UNK0	0.000	
24	  N2	8.057	13.812	24.130	N.2	1	UNK0	0.000	
25	  C2	8.146	15.011	24.733	C.2	1	UNK0	0.000	
26	  N3	7.155	15.752	25.272	N.2	1	UNK0	0.000	
27	  C3	5.898	15.251	25.251	C.2	1	UNK0	0.000	
28	  C4	5.682	13.999	24.650	C.2	1	UNK0	0.000	
29	  N4	4.547	13.247	24.446	N.2	1	UNK0	0.000	
30	  C5	4.949	12.140	23.822	C.2	1	UNK0	0.000	
31	  N5	4.883	16.027	25.798	N.pl3	1	UNK0	0.000	
32	  C6	7.167	11.256	22.878	C.3	1	UNK0	0.000	
33	  C7	7.863	10.222	23.765	C.3	1	UNK0	0.000	
34	  C8	8.172	7.754	24.140	C.3	1	UNK0	0.000	
35	  C9	7.196	8.845	23.734	C.3	1	UNK0	0.000	
36	 C10	4.018	11.018	23.451	C.3	1	UNK0	0.000	
37	 C11	2.581	11.290	23.835	C.2	1	UNK0	0.000	
38	 C12	2.050	10.770	25.023	C.2	1	UNK0	0.000	
39	 C13	0.688	10.888	25.297	C.2	1	UNK0	0.000	
40	 C14	-0.155	11.551	24.402	C.2	1	UNK0	0.000	
41	 C15	0.373	12.151	23.259	C.2	1	UNK0	0.000	
42	 C16	1.741	12.030	22.990	C.2	1	UNK0	0.000	
43	  O1	-0.332	12.858	22.323	O.3	1	UNK0	0.000	
44	 C17	-1.724	12.580	22.227	C.3	1	UNK0	0.000	
@<TRIPOS>BOND
1 22 23 1
2 22 30 1
3 23 24 1
4 23 28 2
5 24 25 2
6 4 25 1
7 25 26 1
8 26 27 2
9 27 28 1
10 27 31 1
11 28 29 1
12 29 30 2
13 30 36 1
14 2 31 1
15 9 31 1
16 3 32 1
17 6 32 1
18 22 32 1
19 5 33 1
20 10 33 1
21 32 33 1
22 1 34 1
23 7 34 1
24 8 34 1
25 34 35 1
26 12 35 1
27 13 35 1
28 33 35 1
29 11 36 1
30 14 36 1
31 36 37 1
32 37 38 1
33 37 42 2
34 19 38 1
35 38 39 2
36 17 39 1
37 39 40 1
38 16 40 1
39 40 41 2
40 41 42 1
41 41 43 1
42 15 42 1
43 43 44 1
44 18 44 1
45 20 44 1
46 21 44 1
@<TRIPOS>SUBSTRUCTURE
1	UNK0	1	GROUP	1 ****	UNK
