# created with PyMOL 2.5.0
@<TRIPOS>MOLECULE
data/HSP90/cocry_dataset/1uy8_PU5_LIG.pdb
44 46 1                 
SMALL
USER_CHARGES
@<TRIPOS>ATOM
1	  N1	7.137	13.904	24.527	N.pl3	1	UNK0	0.000	
2	  C1	6.021	14.562	24.991	C.2	1	UNK0	0.000	
3	  N2	5.975	15.713	25.683	N.2	1	UNK0	0.000	
4	  C2	4.705	16.072	25.943	C.2	1	UNK0	0.000	
5	  N3	3.567	15.442	25.584	N.2	1	UNK0	0.000	
6	  C3	3.668	14.280	24.898	C.2	1	UNK0	0.000	
7	  C4	4.949	13.800	24.573	C.2	1	UNK0	0.000	
8	  N4	5.379	12.693	23.875	N.2	1	UNK0	0.000	
9	  C5	6.712	12.752	23.883	C.2	1	UNK0	0.000	
10	  N5	2.491	13.644	24.523	N.pl3	1	UNK0	0.000	
11	  C6	8.480	14.411	24.722	C.3	1	UNK0	0.000	
12	  C7	9.017	14.307	26.150	C.3	1	UNK0	0.000	
13	  C8	11.447	14.769	26.612	C.3	1	UNK0	0.000	
14	  C9	10.059	15.376	26.489	C.3	1	UNK0	0.000	
15	 C10	7.587	11.696	23.264	C.3	1	UNK0	0.000	
16	 C11	7.181	10.291	23.647	C.2	1	UNK0	0.000	
17	 C12	8.151	9.304	23.869	C.2	1	UNK0	0.000	
18	 C13	7.773	7.977	24.066	C.2	1	UNK0	0.000	
19	 C14	6.422	7.623	24.073	C.2	1	UNK0	0.000	
20	 C15	5.442	8.606	23.942	C.2	1	UNK0	0.000	
21	 C16	5.827	9.937	23.746	C.2	1	UNK0	0.000	
22	  O1	4.090	8.401	23.968	O.3	1	UNK0	0.000	
23	 C17	3.270	9.560	24.056	C.3	1	UNK0	0.000	
24	 H01	4.579	16.990	26.517	 H	1	UNK0	0.000	
25	 H02	1.599	14.045	24.774	 H	1	UNK0	0.000	
26	 H03	2.528	12.782	23.999	 H	1	UNK0	0.000	
27	 H04	9.131	13.787	24.110	 H	1	UNK0	0.000	
28	 H05	8.489	15.463	24.435	 H	1	UNK0	0.000	
29	 H06	8.173	14.458	26.823	 H	1	UNK0	0.000	
30	 H07	9.475	13.326	26.277	 H	1	UNK0	0.000	
31	 H08	12.136	15.517	27.006	 H	1	UNK0	0.000	
32	 H09	11.413	13.915	27.288	 H	1	UNK0	0.000	
33	 H10	11.790	14.442	25.630	 H	1	UNK0	0.000	
34	 H11	10.073	16.112	25.685	 H	1	UNK0	0.000	
35	 H12	9.791	15.848	27.435	 H	1	UNK0	0.000	
36	 H13	8.599	11.854	23.635	 H	1	UNK0	0.000	
37	 H14	7.531	11.790	22.180	 H	1	UNK0	0.000	
38	 H15	9.206	9.576	23.888	 H	1	UNK0	0.000	
39	 H16	8.536	7.212	24.216	 H	1	UNK0	0.000	
40	 H17	6.134	6.577	24.180	 H	1	UNK0	0.000	
41	 H18	5.063	10.710	23.669	 H	1	UNK0	0.000	
42	 H19	2.329	9.303	24.544	 H	1	UNK0	0.000	
43	 H20	3.783	10.326	24.638	 H	1	UNK0	0.000	
44	 H21	3.067	9.940	23.055	 H	1	UNK0	0.000	
@<TRIPOS>BOND
1 13 14 1
2 12 14 1
3 11 12 1
4 1 11 1
5 1 2 1
6 1 9 1
7 2 3 1
8 2 7 2
9 3 4 2
10 4 5 1
11 5 6 2
12 6 7 1
13 6 10 1
14 7 8 1
15 8 9 2
16 9 15 1
17 15 16 1
18 16 17 1
19 16 21 2
20 17 18 2
21 18 19 1
22 19 20 2
23 20 21 1
24 20 22 1
25 22 23 1
26 4 24 1
27 10 25 1
28 10 26 1
29 11 27 1
30 11 28 1
31 12 29 1
32 12 30 1
33 13 31 1
34 13 32 1
35 13 33 1
36 14 34 1
37 14 35 1
38 15 36 1
39 15 37 1
40 17 38 1
41 18 39 1
42 19 40 1
43 21 41 1
44 23 42 1
45 23 43 1
46 23 44 1
@<TRIPOS>SUBSTRUCTURE
1	UNK0	1	GROUP	1 ****	UNK
