# created with PyMOL 2.5.0
@<TRIPOS>MOLECULE
data/HSP90/cocry_dataset/1uy8_PU5_LIG.pdb
23 25 1                 
SMALL
USER_CHARGES
@<TRIPOS>ATOM
1	  N1	6.190	12.208	23.598	N.pl3	1	UNK0	0.000	
2	  C1	6.693	13.386	24.102	C.2	1	UNK0	0.000	
3	  N2	7.959	13.834	24.036	N.2	1	UNK0	0.000	
4	  C2	8.076	15.042	24.615	C.2	1	UNK0	0.000	
5	  N3	7.114	15.791	25.192	N.2	1	UNK0	0.000	
6	  C3	5.858	15.290	25.244	C.2	1	UNK0	0.000	
7	  C4	5.613	14.028	24.674	C.2	1	UNK0	0.000	
8	  N4	4.469	13.272	24.541	N.2	1	UNK0	0.000	
9	  C5	4.841	12.155	23.914	C.2	1	UNK0	0.000	
10	  N5	4.871	16.073	25.829	N.pl3	1	UNK0	0.000	
11	  C6	7.008	11.257	22.872	C.3	1	UNK0	0.000	
12	  C7	7.803	10.282	23.741	C.3	1	UNK0	0.000	
13	  C8	8.190	7.802	23.914	C.3	1	UNK0	0.000	
14	  C9	7.146	8.906	23.870	C.3	1	UNK0	0.000	
15	 C10	3.893	11.027	23.610	C.3	1	UNK0	0.000	
16	 C11	2.441	11.448	23.645	C.2	1	UNK0	0.000	
17	 C12	1.898	12.223	22.612	C.2	1	UNK0	0.000	
18	 C13	0.608	12.741	22.723	C.2	1	UNK0	0.000	
19	 C14	-0.165	12.467	23.854	C.2	1	UNK0	0.000	
20	 C15	0.327	11.624	24.849	C.2	1	UNK0	0.000	
21	 C16	1.622	11.106	24.732	C.2	1	UNK0	0.000	
22	  O1	-0.337	11.245	25.984	O.3	1	UNK0	0.000	
23	 C17	-0.070	9.937	26.475	C.3	1	UNK0	0.000	
@<TRIPOS>BOND
1 1 2 1
2 1 9 1
3 1 11 1
4 2 3 1
5 2 7 2
6 3 4 2
7 4 5 1
8 5 6 2
9 6 7 1
10 6 10 1
11 7 8 1
12 8 9 2
13 9 15 1
14 11 12 1
15 12 14 1
16 13 14 1
17 15 16 1
18 16 17 1
19 16 21 2
20 17 18 2
21 18 19 1
22 19 20 2
23 20 21 1
24 20 22 1
25 22 23 1
@<TRIPOS>SUBSTRUCTURE
1	UNK0	1	GROUP	1 ****	UNK
