# created with PyMOL 2.5.0
@<TRIPOS>MOLECULE
data/HSP90/cocry_dataset/1uy9_PU6_LIG.pdb
24 27 1                 
SMALL
USER_CHARGES
@<TRIPOS>ATOM
1	  N1	6.112	12.231	23.613	N.pl3	1	UNK0	0.000	
2	  C1	6.707	13.375	24.096	C.2	1	UNK0	0.000	
3	  N2	8.009	13.713	24.036	N.2	1	UNK0	0.000	
4	  C2	8.242	14.877	24.665	C.2	1	UNK0	0.000	
5	  N3	7.352	15.692	25.260	N.2	1	UNK0	0.000	
6	  C3	6.046	15.318	25.277	C.2	1	UNK0	0.000	
7	  C4	5.685	14.097	24.679	C.2	1	UNK0	0.000	
8	  N4	4.484	13.440	24.543	N.2	1	UNK0	0.000	
9	  C5	4.760	12.301	23.918	C.2	1	UNK0	0.000	
10	  N5	5.133	16.177	25.878	N.pl3	1	UNK0	0.000	
11	  C6	6.841	11.212	22.879	C.3	1	UNK0	0.000	
12	  C7	7.647	10.276	23.786	C.3	1	UNK0	0.000	
13	  C8	8.115	7.811	23.971	C.3	1	UNK0	0.000	
14	  C9	7.035	8.875	23.853	C.3	1	UNK0	0.000	
15	 C10	3.712	11.260	23.587	C.3	1	UNK0	0.000	
16	 C11	2.319	11.834	23.720	C.2	1	UNK0	0.000	
17	 C12	1.578	11.551	24.873	C.2	1	UNK0	0.000	
18	 C13	0.215	11.630	24.761	C.2	1	UNK0	0.000	
19	  O1	-0.666	11.029	25.611	O.3	1	UNK0	0.000	
20	 C14	-1.741	10.830	24.670	C.3	1	UNK0	0.000	
21	  O2	-1.742	11.844	23.643	O.3	1	UNK0	0.000	
22	 C15	-0.405	12.118	23.629	C.2	1	UNK0	0.000	
23	 C16	0.305	12.634	22.572	C.2	1	UNK0	0.000	
24	 C17	1.690	12.463	22.608	C.2	1	UNK0	0.000	
@<TRIPOS>BOND
1 1 2 1
2 1 9 1
3 1 11 1
4 2 3 1
5 2 7 2
6 3 4 2
7 4 5 1
8 5 6 2
9 6 7 1
10 6 10 1
11 7 8 1
12 8 9 2
13 9 15 1
14 11 12 1
15 12 14 1
16 13 14 1
17 15 16 1
18 16 17 1
19 16 24 2
20 17 18 2
21 18 19 1
22 18 22 1
23 19 20 1
24 20 21 1
25 21 22 1
26 22 23 2
27 23 24 1
@<TRIPOS>SUBSTRUCTURE
1	UNK0	1	GROUP	1 ****	UNK
