# created with PyMOL 2.5.0
@<TRIPOS>MOLECULE
data/HSP90/cocry_dataset/1uy9_PU6_LIG.pdb
43 46 1                 
SMALL
USER_CHARGES
@<TRIPOS>ATOM
1	 H17	-1.626	9.852	24.203	 H	1	UNK0	0.000	
2	 H18	-0.188	13.150	21.748	 H	1	UNK0	0.000	
3	 H01	9.282	15.202	24.698	 H	1	UNK0	0.000	
4	 H10	8.381	7.450	22.977	 H	1	UNK0	0.000	
5	 H02	5.451	17.045	26.287	 H	1	UNK0	0.000	
6	 H07	8.663	10.199	23.400	 H	1	UNK0	0.000	
7	 H06	7.639	10.694	24.792	 H	1	UNK0	0.000	
8	 H05	6.128	10.615	22.311	 H	1	UNK0	0.000	
9	 H12	6.455	8.696	22.948	 H	1	UNK0	0.000	
10	 H04	7.551	11.725	22.230	 H	1	UNK0	0.000	
11	 H09	7.744	6.981	24.572	 H	1	UNK0	0.000	
12	 H03	4.153	15.935	25.905	 H	1	UNK0	0.000	
13	 H08	8.996	8.239	24.449	 H	1	UNK0	0.000	
14	 H11	6.396	8.819	24.734	 H	1	UNK0	0.000	
15	 H15	2.060	11.281	25.812	 H	1	UNK0	0.000	
16	 H14	3.861	10.916	22.563	 H	1	UNK0	0.000	
17	 H13	3.815	10.429	24.285	 H	1	UNK0	0.000	
18	 H16	-2.684	10.893	25.213	 H	1	UNK0	0.000	
19	 H19	2.298	12.816	21.775	 H	1	UNK0	0.000	
20	  N1	6.112	12.231	23.613	N.pl3	1	UNK0	0.000	
21	  C1	6.707	13.375	24.096	C.2	1	UNK0	0.000	
22	  N2	8.009	13.713	24.036	N.2	1	UNK0	0.000	
23	  C2	8.242	14.877	24.665	C.2	1	UNK0	0.000	
24	  N3	7.352	15.692	25.260	N.2	1	UNK0	0.000	
25	  C3	6.046	15.318	25.277	C.2	1	UNK0	0.000	
26	  C4	5.685	14.097	24.679	C.2	1	UNK0	0.000	
27	  N4	4.484	13.440	24.543	N.2	1	UNK0	0.000	
28	  C5	4.760	12.301	23.918	C.2	1	UNK0	0.000	
29	  N5	5.133	16.177	25.878	N.pl3	1	UNK0	0.000	
30	  C6	6.841	11.212	22.879	C.3	1	UNK0	0.000	
31	  C7	7.647	10.276	23.786	C.3	1	UNK0	0.000	
32	  C8	8.115	7.811	23.971	C.3	1	UNK0	0.000	
33	  C9	7.035	8.875	23.853	C.3	1	UNK0	0.000	
34	 C10	3.712	11.260	23.587	C.3	1	UNK0	0.000	
35	 C11	2.319	11.834	23.720	C.2	1	UNK0	0.000	
36	 C12	1.578	11.551	24.873	C.2	1	UNK0	0.000	
37	 C13	0.215	11.630	24.761	C.2	1	UNK0	0.000	
38	  O1	-0.666	11.029	25.611	O.3	1	UNK0	0.000	
39	 C14	-1.741	10.830	24.670	C.3	1	UNK0	0.000	
40	  O2	-1.742	11.844	23.643	O.3	1	UNK0	0.000	
41	 C15	-0.405	12.118	23.629	C.2	1	UNK0	0.000	
42	 C16	0.305	12.634	22.572	C.2	1	UNK0	0.000	
43	 C17	1.690	12.463	22.608	C.2	1	UNK0	0.000	
@<TRIPOS>BOND
1 20 21 1
2 20 28 1
3 21 22 1
4 21 26 2
5 22 23 2
6 3 23 1
7 23 24 1
8 24 25 2
9 25 26 1
10 25 29 1
11 26 27 1
12 27 28 2
13 28 34 1
14 5 29 1
15 12 29 1
16 8 30 1
17 10 30 1
18 20 30 1
19 6 31 1
20 7 31 1
21 30 31 1
22 4 32 1
23 11 32 1
24 13 32 1
25 32 33 1
26 9 33 1
27 14 33 1
28 31 33 1
29 16 34 1
30 17 34 1
31 34 35 1
32 35 36 1
33 35 43 2
34 15 36 1
35 36 37 2
36 37 38 1
37 37 41 1
38 38 39 1
39 1 39 1
40 18 39 1
41 39 40 1
42 40 41 1
43 41 42 2
44 2 42 1
45 42 43 1
46 19 43 1
@<TRIPOS>SUBSTRUCTURE
1	UNK0	1	GROUP	1 ****	UNK
