# created with PyMOL 2.5.0
@<TRIPOS>MOLECULE
data/HSP90/cocry_dataset/1uy9_PU6_LIG.pdb
24 27 1                 
SMALL
USER_CHARGES
@<TRIPOS>ATOM
1	  N1	4.477	11.894	24.105	N.pl3	1	UNK0	0.000	
2	  C1	5.129	10.780	23.624	C.2	1	UNK0	0.000	
3	  N2	4.611	9.558	23.399	N.2	1	UNK0	0.000	
4	  C2	5.555	8.696	22.984	C.2	1	UNK0	0.000	
5	  N3	6.856	8.940	22.747	N.2	1	UNK0	0.000	
6	  C3	7.327	10.195	22.969	C.2	1	UNK0	0.000	
7	  C4	6.438	11.177	23.440	C.2	1	UNK0	0.000	
8	  N4	6.596	12.504	23.770	N.2	1	UNK0	0.000	
9	  C5	5.409	12.918	24.194	C.2	1	UNK0	0.000	
10	  N5	8.669	10.440	22.702	N.pl3	1	UNK0	0.000	
11	  C6	3.052	11.913	24.390	C.3	1	UNK0	0.000	
12	  C7	2.185	11.789	23.133	C.3	1	UNK0	0.000	
13	  C8	1.279	13.896	24.168	C.3	1	UNK0	0.000	
14	  C9	1.063	12.829	23.105	C.3	1	UNK0	0.000	
15	 C10	5.145	14.328	24.682	C.3	1	UNK0	0.000	
16	 C11	6.387	14.924	25.308	C.2	1	UNK0	0.000	
17	 C12	7.521	15.116	24.510	C.2	1	UNK0	0.000	
18	 C13	8.726	15.161	25.159	C.2	1	UNK0	0.000	
19	  O1	9.933	14.944	24.562	O.3	1	UNK0	0.000	
20	 C14	10.626	14.409	25.708	C.3	1	UNK0	0.000	
21	  O2	10.106	14.948	26.942	O.3	1	UNK0	0.000	
22	 C15	8.823	15.180	26.535	C.2	1	UNK0	0.000	
23	 C16	7.715	15.240	27.345	C.2	1	UNK0	0.000	
24	 C17	6.476	15.082	26.720	C.2	1	UNK0	0.000	
@<TRIPOS>BOND
1 1 2 1
2 1 9 1
3 1 11 1
4 2 3 1
5 2 7 2
6 3 4 2
7 4 5 1
8 5 6 2
9 6 7 1
10 6 10 1
11 7 8 1
12 8 9 2
13 9 15 1
14 11 12 1
15 12 14 1
16 13 14 1
17 15 16 1
18 16 17 1
19 16 24 2
20 17 18 2
21 18 19 1
22 18 22 1
23 19 20 1
24 20 21 1
25 21 22 1
26 22 23 2
27 23 24 1
@<TRIPOS>SUBSTRUCTURE
1	UNK0	1	GROUP	1 ****	UNK
