# created with PyMOL 2.5.0
@<TRIPOS>MOLECULE
data/HSP90/cocry_dataset/1uy9_PU6_LIG.pdb
24 27 1                 
SMALL
USER_CHARGES
@<TRIPOS>ATOM
1	  N1	7.275	13.943	24.603	N.pl3	1	UNK0	0.000	
2	  C1	6.054	14.500	24.912	C.2	1	UNK0	0.000	
3	  N2	5.818	15.686	25.506	N.2	1	UNK0	0.000	
4	  C2	4.503	15.880	25.706	C.2	1	UNK0	0.000	
5	  N3	3.483	15.080	25.348	N.2	1	UNK0	0.000	
6	  C3	3.770	13.903	24.733	C.2	1	UNK0	0.000	
7	  C4	5.118	13.574	24.501	C.2	1	UNK0	0.000	
8	  N4	5.730	12.482	23.930	N.2	1	UNK0	0.000	
9	  C5	7.035	12.707	24.020	C.2	1	UNK0	0.000	
10	  N5	2.706	13.094	24.351	N.pl3	1	UNK0	0.000	
11	  C6	8.536	14.627	24.835	C.3	1	UNK0	0.000	
12	  C7	9.017	14.528	26.286	C.3	1	UNK0	0.000	
13	  C8	11.511	14.702	26.572	C.3	1	UNK0	0.000	
14	  C9	10.194	15.464	26.565	C.3	1	UNK0	0.000	
15	 C10	8.083	11.732	23.526	C.3	1	UNK0	0.000	
16	 C11	7.465	10.387	23.214	C.2	1	UNK0	0.000	
17	 C12	6.472	10.310	22.231	C.2	1	UNK0	0.000	
18	 C13	5.604	9.254	22.318	C.2	1	UNK0	0.000	
19	  O1	4.374	9.215	21.730	O.3	1	UNK0	0.000	
20	 C14	3.725	8.356	22.688	C.3	1	UNK0	0.000	
21	  O2	4.661	7.449	23.309	O.3	1	UNK0	0.000	
22	 C15	5.782	8.226	23.220	C.2	1	UNK0	0.000	
23	 C16	6.886	8.149	24.034	C.2	1	UNK0	0.000	
24	 C17	7.727	9.263	24.049	C.2	1	UNK0	0.000	
@<TRIPOS>BOND
1 1 2 1
2 1 9 1
3 1 11 1
4 2 3 1
5 2 7 2
6 3 4 2
7 4 5 1
8 5 6 2
9 6 7 1
10 6 10 1
11 7 8 1
12 8 9 2
13 9 15 1
14 11 12 1
15 12 14 1
16 13 14 1
17 15 16 1
18 16 17 1
19 16 24 2
20 17 18 2
21 18 19 1
22 18 22 1
23 19 20 1
24 20 21 1
25 21 22 1
26 22 23 2
27 23 24 1
@<TRIPOS>SUBSTRUCTURE
1	UNK0	1	GROUP	1 ****	UNK
