# created with PyMOL 2.5.0
@<TRIPOS>MOLECULE
data/HSP90/cocry_dataset/1uyc_PU7_LIG.pdb
25 27 1                 
SMALL
USER_CHARGES
@<TRIPOS>ATOM
1	  C1	4.974	12.120	23.787	C.2	1	UNK0	0.000	
2	  N1	4.557	13.216	24.407	N.2	1	UNK0	0.000	
3	  C2	5.686	13.972	24.622	C.2	1	UNK0	0.000	
4	  C3	5.890	15.207	25.270	C.2	1	UNK0	0.000	
5	  N2	4.862	15.946	25.849	N.pl3	1	UNK0	0.000	
6	  N3	7.148	15.698	25.334	N.2	1	UNK0	0.000	
7	  C4	8.149	14.969	24.790	C.2	1	UNK0	0.000	
8	  N4	8.073	13.790	24.143	N.2	1	UNK0	0.000	
9	  C5	6.802	13.347	24.096	C.2	1	UNK0	0.000	
10	  N5	6.330	12.196	23.518	N.pl3	1	UNK0	0.000	
11	  C6	4.097	10.934	23.491	C.3	1	UNK0	0.000	
12	  C7	2.088	10.584	25.027	C.2	1	UNK0	0.000	
13	  C8	0.735	10.801	25.311	C.2	1	UNK0	0.000	
14	  C9	-0.066	11.564	24.452	C.2	1	UNK0	0.000	
15	 C10	0.480	12.136	23.308	C.2	1	UNK0	0.000	
16	 C11	1.829	11.924	23.024	C.2	1	UNK0	0.000	
17	 C12	2.644	11.137	23.862	C.2	1	UNK0	0.000	
18	 C13	2.394	8.785	26.558	C.3	1	UNK0	0.000	
19	  O1	2.942	9.881	25.835	O.3	1	UNK0	0.000	
20	  O2	-0.184	12.916	22.403	O.3	1	UNK0	0.000	
21	 C14	-1.549	12.602	22.162	C.3	1	UNK0	0.000	
22	 C15	7.174	11.213	22.869	C.3	1	UNK0	0.000	
23	 C16	7.788	10.168	23.806	C.3	1	UNK0	0.000	
24	 C17	7.293	8.742	23.557	C.3	1	UNK0	0.000	
25	 C18	8.172	7.718	24.258	C.3	1	UNK0	0.000	
@<TRIPOS>BOND
1 1 2 2
2 1 10 1
3 1 11 1
4 2 3 1
5 3 4 1
6 3 9 2
7 4 5 1
8 4 6 2
9 6 7 1
10 7 8 2
11 8 9 1
12 9 10 1
13 10 22 1
14 11 17 1
15 12 13 1
16 12 17 2
17 12 19 1
18 13 14 2
19 14 15 1
20 15 16 2
21 15 20 1
22 16 17 1
23 18 19 1
24 20 21 1
25 22 23 1
26 23 24 1
27 24 25 1
@<TRIPOS>SUBSTRUCTURE
1	UNK0	1	GROUP	1 ****	UNK
