# created with PyMOL 2.5.0
@<TRIPOS>MOLECULE
data/HSP90/cocry_dataset/1uyc_PU7_LIG.pdb
25 27 1                 
SMALL
USER_CHARGES
@<TRIPOS>ATOM
1	  C1	6.813	11.392	23.488	C.2	1	UNK0	0.000	
2	  N1	7.753	10.481	23.703	N.2	1	UNK0	0.000	
3	  C2	7.081	9.311	23.974	C.2	1	UNK0	0.000	
4	  C3	7.527	8.020	24.322	C.2	1	UNK0	0.000	
5	  N2	8.872	7.684	24.448	N.pl3	1	UNK0	0.000	
6	  N3	6.601	7.061	24.547	N.2	1	UNK0	0.000	
7	  C4	5.295	7.394	24.445	C.2	1	UNK0	0.000	
8	  N4	4.755	8.582	24.113	N.2	1	UNK0	0.000	
9	  C5	5.714	9.502	23.890	C.2	1	UNK0	0.000	
10	  N5	5.556	10.814	23.526	N.pl3	1	UNK0	0.000	
11	  C6	7.089	12.860	23.306	C.3	1	UNK0	0.000	
12	  C7	6.599	14.460	25.235	C.2	1	UNK0	0.000	
13	  C8	7.017	15.098	26.407	C.2	1	UNK0	0.000	
14	  C9	8.291	14.862	26.939	C.2	1	UNK0	0.000	
15	 C10	9.156	13.969	26.316	C.2	1	UNK0	0.000	
16	 C11	8.741	13.329	25.147	C.2	1	UNK0	0.000	
17	 C12	7.473	13.575	24.583	C.2	1	UNK0	0.000	
18	 C13	4.340	15.165	25.498	C.3	1	UNK0	0.000	
19	  O1	5.359	14.613	24.674	O.3	1	UNK0	0.000	
20	  O2	10.411	13.634	26.741	O.3	1	UNK0	0.000	
21	 C14	11.402	14.652	26.684	C.3	1	UNK0	0.000	
22	 C15	4.268	11.456	23.352	C.3	1	UNK0	0.000	
23	 C16	3.365	11.438	24.590	C.3	1	UNK0	0.000	
24	 C17	1.877	11.608	24.277	C.3	1	UNK0	0.000	
25	 C18	1.556	13.035	23.859	C.3	1	UNK0	0.000	
@<TRIPOS>BOND
1 1 2 2
2 1 10 1
3 1 11 1
4 2 3 1
5 3 4 1
6 3 9 2
7 4 5 1
8 4 6 2
9 6 7 1
10 7 8 2
11 8 9 1
12 9 10 1
13 10 22 1
14 11 17 1
15 12 13 1
16 12 17 2
17 12 19 1
18 13 14 2
19 14 15 1
20 15 16 2
21 15 20 1
22 16 17 1
23 18 19 1
24 20 21 1
25 22 23 1
26 23 24 1
27 24 25 1
@<TRIPOS>SUBSTRUCTURE
1	UNK0	1	GROUP	1 ****	UNK
