# created with PyMOL 2.5.0
@<TRIPOS>MOLECULE
data/HSP90/cocry_dataset/1uyc_PU7_LIG.pdb
25 27 1                 
SMALL
USER_CHARGES
@<TRIPOS>ATOM
1	  C1	5.045	11.906	23.702	C.2	1	UNK0	0.000	
2	  N1	4.511	12.950	24.323	N.2	1	UNK0	0.000	
3	  C2	5.558	13.807	24.575	C.2	1	UNK0	0.000	
4	  C3	5.629	15.047	25.241	C.2	1	UNK0	0.000	
5	  N2	4.522	15.678	25.801	N.pl3	1	UNK0	0.000	
6	  N3	6.833	15.653	25.343	N.2	1	UNK0	0.000	
7	  C4	7.911	15.029	24.817	C.2	1	UNK0	0.000	
8	  N4	7.963	13.857	24.156	N.2	1	UNK0	0.000	
9	  C5	6.741	13.297	24.071	C.2	1	UNK0	0.000	
10	  N5	6.394	12.114	23.469	N.pl3	1	UNK0	0.000	
11	  C6	4.292	10.647	23.371	C.3	1	UNK0	0.000	
12	  C7	1.803	11.032	23.797	C.2	1	UNK0	0.000	
13	  C8	0.670	10.828	24.592	C.2	1	UNK0	0.000	
14	  C9	0.741	10.057	25.760	C.2	1	UNK0	0.000	
15	 C10	1.942	9.465	26.136	C.2	1	UNK0	0.000	
16	 C11	3.073	9.664	25.343	C.2	1	UNK0	0.000	
17	 C12	3.027	10.458	24.181	C.2	1	UNK0	0.000	
18	 C13	0.793	12.728	22.465	C.3	1	UNK0	0.000	
19	  O1	1.805	11.741	22.625	O.3	1	UNK0	0.000	
20	  O2	2.141	8.676	27.235	O.3	1	UNK0	0.000	
21	 C14	0.981	8.170	27.882	C.3	1	UNK0	0.000	
22	 C15	7.343	11.224	22.831	C.3	1	UNK0	0.000	
23	 C16	8.028	10.228	23.773	C.3	1	UNK0	0.000	
24	 C17	8.010	8.783	23.270	C.3	1	UNK0	0.000	
25	 C18	7.786	7.801	24.410	C.3	1	UNK0	0.000	
@<TRIPOS>BOND
1 1 2 2
2 1 10 1
3 1 11 1
4 2 3 1
5 3 4 1
6 3 9 2
7 4 5 1
8 4 6 2
9 6 7 1
10 7 8 2
11 8 9 1
12 9 10 1
13 10 22 1
14 11 17 1
15 12 13 1
16 12 17 2
17 12 19 1
18 13 14 2
19 14 15 1
20 15 16 2
21 15 20 1
22 16 17 1
23 18 19 1
24 20 21 1
25 22 23 1
26 23 24 1
27 24 25 1
@<TRIPOS>SUBSTRUCTURE
1	UNK0	1	GROUP	1 ****	UNK
