# created with PyMOL 2.5.0
@<TRIPOS>MOLECULE
data/HSP90/cocry_dataset/1uyc_PU7_LIG.pdb
48 50 1                 
SMALL
USER_CHARGES
@<TRIPOS>ATOM
1	 H01	9.135	6.742	24.700	 H	1	UNK0	0.000	
2	 H12	12.296	14.261	26.197	 H	1	UNK0	0.000	
3	 H04	6.162	13.314	22.956	 H	1	UNK0	0.000	
4	 H03	4.585	6.595	24.660	 H	1	UNK0	0.000	
5	 H02	9.584	8.381	24.286	 H	1	UNK0	0.000	
6	 H11	4.141	16.192	25.192	 H	1	UNK0	0.000	
7	 H09	3.430	14.574	25.396	 H	1	UNK0	0.000	
8	 H08	9.412	12.622	24.660	 H	1	UNK0	0.000	
9	 H15	3.744	10.885	22.585	 H	1	UNK0	0.000	
10	 H07	8.605	15.379	27.846	 H	1	UNK0	0.000	
11	 H06	6.342	15.789	26.914	 H	1	UNK0	0.000	
12	 H05	7.904	12.970	22.591	 H	1	UNK0	0.000	
13	 H23	1.408	13.073	22.780	 H	1	UNK0	0.000	
14	 H14	11.652	14.974	27.695	 H	1	UNK0	0.000	
15	 H18	3.502	10.485	25.102	 H	1	UNK0	0.000	
16	 H17	3.657	12.289	25.206	 H	1	UNK0	0.000	
17	 H16	4.441	12.495	23.074	 H	1	UNK0	0.000	
18	 H19	1.309	11.380	25.179	 H	1	UNK0	0.000	
19	 H22	2.383	13.690	24.135	 H	1	UNK0	0.000	
20	 H21	0.648	13.365	24.362	 H	1	UNK0	0.000	
21	 H20	1.604	10.931	23.468	 H	1	UNK0	0.000	
22	 H10	4.666	15.152	26.538	 H	1	UNK0	0.000	
23	 H13	11.021	15.500	26.116	 H	1	UNK0	0.000	
24	  C1	6.813	11.392	23.488	C.2	1	UNK0	0.000	
25	  N1	7.753	10.481	23.703	N.2	1	UNK0	0.000	
26	  C2	7.081	9.311	23.974	C.2	1	UNK0	0.000	
27	  C3	7.527	8.020	24.322	C.2	1	UNK0	0.000	
28	  N2	8.872	7.684	24.448	N.pl3	1	UNK0	0.000	
29	  N3	6.601	7.061	24.547	N.2	1	UNK0	0.000	
30	  C4	5.295	7.394	24.445	C.2	1	UNK0	0.000	
31	  N4	4.755	8.582	24.113	N.2	1	UNK0	0.000	
32	  C5	5.714	9.502	23.890	C.2	1	UNK0	0.000	
33	  N5	5.556	10.814	23.526	N.pl3	1	UNK0	0.000	
34	  C6	7.089	12.860	23.306	C.3	1	UNK0	0.000	
35	  C7	6.599	14.460	25.235	C.2	1	UNK0	0.000	
36	  C8	7.017	15.098	26.407	C.2	1	UNK0	0.000	
37	  C9	8.291	14.862	26.939	C.2	1	UNK0	0.000	
38	 C10	9.156	13.969	26.316	C.2	1	UNK0	0.000	
39	 C11	8.741	13.329	25.147	C.2	1	UNK0	0.000	
40	 C12	7.473	13.575	24.583	C.2	1	UNK0	0.000	
41	 C13	4.340	15.165	25.498	C.3	1	UNK0	0.000	
42	  O1	5.359	14.613	24.674	O.3	1	UNK0	0.000	
43	  O2	10.411	13.634	26.741	O.3	1	UNK0	0.000	
44	 C14	11.402	14.652	26.684	C.3	1	UNK0	0.000	
45	 C15	4.268	11.456	23.352	C.3	1	UNK0	0.000	
46	 C16	3.365	11.438	24.590	C.3	1	UNK0	0.000	
47	 C17	1.877	11.608	24.277	C.3	1	UNK0	0.000	
48	 C18	1.556	13.035	23.859	C.3	1	UNK0	0.000	
@<TRIPOS>BOND
1 24 25 2
2 24 33 1
3 25 26 1
4 26 27 1
5 26 32 2
6 27 28 1
7 27 29 2
8 1 28 1
9 5 28 1
10 29 30 1
11 4 30 1
12 30 31 2
13 31 32 1
14 32 33 1
15 33 45 1
16 3 34 1
17 12 34 1
18 24 34 1
19 35 36 1
20 35 40 2
21 11 36 1
22 36 37 2
23 10 37 1
24 37 38 1
25 38 39 2
26 38 43 1
27 8 39 1
28 39 40 1
29 34 40 1
30 6 41 1
31 7 41 1
32 22 41 1
33 41 42 1
34 35 42 1
35 43 44 1
36 2 44 1
37 14 44 1
38 23 44 1
39 9 45 1
40 17 45 1
41 45 46 1
42 15 46 1
43 16 46 1
44 46 47 1
45 18 47 1
46 21 47 1
47 47 48 1
48 13 48 1
49 19 48 1
50 20 48 1
@<TRIPOS>SUBSTRUCTURE
1	UNK0	1	GROUP	1 ****	UNK
