# created with PyMOL 2.5.0
@<TRIPOS>MOLECULE
data/HSP90/cocry_dataset/1uyd_PU8_LIG.pdb
50 52 1                 
SMALL
USER_CHARGES
@<TRIPOS>ATOM
1	  C1	6.493	12.572	23.927	C.2	1	UNK0	0.000	
2	  N1	5.186	12.784	23.842	N.2	1	UNK0	0.000	
3	  C2	4.946	13.920	24.582	C.2	1	UNK0	0.000	
4	  C3	3.760	14.568	24.973	C.2	1	UNK0	0.000	
5	  N2	2.492	14.108	24.649	N.pl3	1	UNK0	0.000	
6	  N3	3.856	15.686	25.728	N.2	1	UNK0	0.000	
7	  C4	5.086	16.109	26.092	C.2	1	UNK0	0.000	
8	  N4	6.284	15.567	25.788	N.2	1	UNK0	0.000	
9	  C5	6.134	14.468	25.031	C.2	1	UNK0	0.000	
10	  N5	7.115	13.613	24.591	N.pl3	1	UNK0	0.000	
11	  C6	7.179	11.311	23.473	C.3	1	UNK0	0.000	
12	  C7	5.767	7.740	23.242	C.2	1	UNK0	0.000	
13	  C8	6.631	8.808	23.584	C.2	1	UNK0	0.000	
14	  C9	6.210	10.139	23.463	C.2	1	UNK0	0.000	
15	 C10	4.843	10.373	23.257	C.2	1	UNK0	0.000	
16	 C11	3.933	9.320	23.107	C.2	1	UNK0	0.000	
17	 C12	4.390	7.987	23.037	C.2	1	UNK0	0.000	
18	 Cl1	8.183	8.476	24.310	Cl	1	UNK0	0.000	
19	 C13	6.171	5.742	24.419	C.3	1	UNK0	0.000	
20	  O1	6.260	6.455	23.176	O.3	1	UNK0	0.000	
21	  O2	3.416	7.068	22.752	O.3	1	UNK0	0.000	
22	 C14	2.541	6.594	23.760	C.3	1	UNK0	0.000	
23	  O3	2.638	9.754	22.945	O.3	1	UNK0	0.000	
24	 C15	2.114	10.585	23.977	C.3	1	UNK0	0.000	
25	 C16	8.514	13.709	24.985	C.3	1	UNK0	0.000	
26	 C17	9.003	15.126	25.104	C.2	1	UNK0	0.000	
27	 C18	9.948	15.579	25.945	C.2	1	UNK0	0.000	
28	 C19	10.732	14.789	26.944	C.3	1	UNK0	0.000	
29	 H01	1.675	14.610	24.967	 H	1	UNK0	0.000	
30	 H02	2.385	13.270	24.094	 H	1	UNK0	0.000	
31	 H03	5.115	17.005	26.711	 H	1	UNK0	0.000	
32	 H04	7.550	11.463	22.459	 H	1	UNK0	0.000	
33	 H05	8.003	11.087	24.150	 H	1	UNK0	0.000	
34	 H06	4.480	11.400	23.213	 H	1	UNK0	0.000	
35	 H07	5.126	5.665	24.719	 H	1	UNK0	0.000	
36	 H08	6.589	4.743	24.297	 H	1	UNK0	0.000	
37	 H09	6.729	6.279	25.186	 H	1	UNK0	0.000	
38	 H10	1.583	6.328	23.314	 H	1	UNK0	0.000	
39	 H11	2.976	5.715	24.236	 H	1	UNK0	0.000	
40	 H12	2.389	7.374	24.507	 H	1	UNK0	0.000	
41	 H13	1.102	10.264	24.224	 H	1	UNK0	0.000	
42	 H14	2.746	10.508	24.862	 H	1	UNK0	0.000	
43	 H15	2.092	11.620	23.635	 H	1	UNK0	0.000	
44	 H16	9.103	13.230	24.203	 H	1	UNK0	0.000	
45	 H17	8.637	13.218	25.951	 H	1	UNK0	0.000	
46	 H18	8.546	15.860	24.440	 H	1	UNK0	0.000	
47	 H19	10.168	16.645	25.894	 H	1	UNK0	0.000	
48	 H20	11.641	15.332	27.203	 H	1	UNK0	0.000	
49	 H21	10.131	14.638	27.842	 H	1	UNK0	0.000	
50	 H22	10.997	13.822	26.517	 H	1	UNK0	0.000	
@<TRIPOS>BOND
1 19 20 1
2 12 20 1
3 12 13 1
4 12 17 2
5 13 14 2
6 13 18 1
7 14 15 1
8 11 14 1
9 15 16 2
10 16 17 1
11 16 23 1
12 17 21 1
13 21 22 1
14 23 24 1
15 1 11 1
16 1 2 2
17 1 10 1
18 2 3 1
19 3 4 1
20 3 9 2
21 4 5 1
22 4 6 2
23 6 7 1
24 7 8 2
25 8 9 1
26 9 10 1
27 10 25 1
28 25 26 1
29 26 27 2
30 27 28 1
31 5 29 1
32 5 30 1
33 7 31 1
34 11 32 1
35 11 33 1
36 15 34 1
37 19 35 1
38 19 36 1
39 19 37 1
40 22 38 1
41 22 39 1
42 22 40 1
43 24 41 1
44 24 42 1
45 24 43 1
46 25 44 1
47 25 45 1
48 26 46 1
49 27 47 1
50 28 48 1
51 28 49 1
52 28 50 1
@<TRIPOS>SUBSTRUCTURE
1	UNK0	1	GROUP	1 ****	UNK
