# created with PyMOL 2.5.0
@<TRIPOS>MOLECULE
data/HSP90/cocry_dataset/1uyd_PU8_LIG.pdb
50 52 1                 
SMALL
USER_CHARGES
@<TRIPOS>ATOM
1	 H21	10.675	14.487	27.957	 H	1	UNK0	0.000	
2	 H22	11.384	14.023	26.391	 H	1	UNK0	0.000	
3	 H19	10.076	16.749	26.479	 H	1	UNK0	0.000	
4	 H08	5.527	7.384	19.889	 H	1	UNK0	0.000	
5	 H20	11.954	15.487	27.226	 H	1	UNK0	0.000	
6	 H01	1.945	14.078	24.723	 H	1	UNK0	0.000	
7	 H05	8.445	11.469	22.817	 H	1	UNK0	0.000	
8	 H04	8.364	10.922	24.520	 H	1	UNK0	0.000	
9	 H11	2.737	6.920	24.244	 H	1	UNK0	0.000	
10	 H03	5.071	16.850	26.500	 H	1	UNK0	0.000	
11	 H09	3.799	7.213	20.281	 H	1	UNK0	0.000	
12	 H02	2.812	12.769	23.952	 H	1	UNK0	0.000	
13	 H10	1.915	6.744	22.676	 H	1	UNK0	0.000	
14	 H07	4.294	8.025	18.777	 H	1	UNK0	0.000	
15	 H14	5.871	5.309	25.601	 H	1	UNK0	0.000	
16	 H13	7.245	6.438	25.531	 H	1	UNK0	0.000	
17	 H12	2.412	8.356	23.243	 H	1	UNK0	0.000	
18	 H15	6.566	5.769	24.028	 H	1	UNK0	0.000	
19	 H18	8.421	15.978	25.056	 H	1	UNK0	0.000	
20	 H17	9.022	13.163	25.962	 H	1	UNK0	0.000	
21	 H16	9.489	13.567	24.262	 H	1	UNK0	0.000	
22	 H06	7.000	9.125	25.179	 H	1	UNK0	0.000	
23	  C1	6.969	12.436	24.007	C.2	1	UNK0	0.000	
24	  N1	5.653	12.526	23.852	N.2	1	UNK0	0.000	
25	  C2	5.279	13.668	24.522	C.2	1	UNK0	0.000	
26	  C3	4.022	14.224	24.826	C.2	1	UNK0	0.000	
27	  N2	2.817	13.637	24.468	N.pl3	1	UNK0	0.000	
28	  N3	3.982	15.380	25.528	N.2	1	UNK0	0.000	
29	  C4	5.151	15.928	25.926	C.2	1	UNK0	0.000	
30	  N4	6.405	15.482	25.705	N.2	1	UNK0	0.000	
31	  C5	6.391	14.341	24.997	C.2	1	UNK0	0.000	
32	  N5	7.463	13.558	24.646	N.pl3	1	UNK0	0.000	
33	  C6	7.784	11.222	23.647	C.3	1	UNK0	0.000	
34	  C7	5.246	9.068	21.718	C.2	1	UNK0	0.000	
35	  C8	6.324	9.953	21.963	C.2	1	UNK0	0.000	
36	  C9	6.885	10.065	23.242	C.2	1	UNK0	0.000	
37	 C10	6.537	9.094	24.192	C.2	1	UNK0	0.000	
38	 C11	5.608	8.086	23.905	C.2	1	UNK0	0.000	
39	 C12	4.903	8.094	22.683	C.2	1	UNK0	0.000	
40	 Cl1	7.071	10.806	20.636	Cl	1	UNK0	0.000	
41	 C13	4.548	7.859	19.824	C.3	1	UNK0	0.000	
42	  O1	4.580	9.118	20.514	O.3	1	UNK0	0.000	
43	  O2	3.930	7.136	22.584	O.3	1	UNK0	0.000	
44	 C14	2.677	7.299	23.224	C.3	1	UNK0	0.000	
45	  O3	5.425	7.216	24.954	O.3	1	UNK0	0.000	
46	 C15	6.330	6.118	25.033	C.3	1	UNK0	0.000	
47	 C16	8.827	13.797	25.097	C.3	1	UNK0	0.000	
48	 C17	9.084	15.227	25.486	C.2	1	UNK0	0.000	
49	 C18	10.047	15.672	26.309	C.2	1	UNK0	0.000	
50	 C19	11.085	14.862	27.019	C.3	1	UNK0	0.000	
@<TRIPOS>BOND
1 23 24 2
2 23 32 1
3 24 25 1
4 25 26 1
5 25 31 2
6 26 27 1
7 26 28 2
8 6 27 1
9 12 27 1
10 28 29 1
11 10 29 1
12 29 30 2
13 30 31 1
14 31 32 1
15 32 47 1
16 7 33 1
17 8 33 1
18 23 33 1
19 34 35 1
20 34 39 2
21 35 36 2
22 35 40 1
23 33 36 1
24 36 37 1
25 22 37 1
26 37 38 2
27 38 39 1
28 38 45 1
29 39 43 1
30 4 41 1
31 11 41 1
32 14 41 1
33 41 42 1
34 34 42 1
35 43 44 1
36 9 44 1
37 13 44 1
38 17 44 1
39 45 46 1
40 15 46 1
41 16 46 1
42 18 46 1
43 20 47 1
44 21 47 1
45 47 48 1
46 19 48 1
47 48 49 2
48 3 49 1
49 49 50 1
50 1 50 1
51 2 50 1
52 5 50 1
@<TRIPOS>SUBSTRUCTURE
1	UNK0	1	GROUP	1 ****	UNK
