# created with PyMOL 2.5.0
@<TRIPOS>MOLECULE
data/HSP90/cocry_dataset/1uyd_PU8_LIG.pdb
28 30 1                 
SMALL
USER_CHARGES
@<TRIPOS>ATOM
1	  C1	6.493	12.572	23.927	C.2	1	UNK0	0.000	
2	  N1	5.186	12.784	23.842	N.2	1	UNK0	0.000	
3	  C2	4.946	13.920	24.582	C.2	1	UNK0	0.000	
4	  C3	3.760	14.568	24.973	C.2	1	UNK0	0.000	
5	  N2	2.492	14.108	24.649	N.pl3	1	UNK0	0.000	
6	  N3	3.856	15.686	25.728	N.2	1	UNK0	0.000	
7	  C4	5.086	16.109	26.092	C.2	1	UNK0	0.000	
8	  N4	6.284	15.567	25.788	N.2	1	UNK0	0.000	
9	  C5	6.134	14.468	25.031	C.2	1	UNK0	0.000	
10	  N5	7.115	13.613	24.591	N.pl3	1	UNK0	0.000	
11	  C6	7.179	11.311	23.473	C.3	1	UNK0	0.000	
12	  C7	5.767	7.740	23.242	C.2	1	UNK0	0.000	
13	  C8	6.631	8.808	23.584	C.2	1	UNK0	0.000	
14	  C9	6.210	10.139	23.463	C.2	1	UNK0	0.000	
15	 C10	4.843	10.373	23.257	C.2	1	UNK0	0.000	
16	 C11	3.933	9.320	23.107	C.2	1	UNK0	0.000	
17	 C12	4.390	7.987	23.037	C.2	1	UNK0	0.000	
18	 Cl1	8.183	8.476	24.310	Cl	1	UNK0	0.000	
19	 C13	6.171	5.742	24.419	C.3	1	UNK0	0.000	
20	  O1	6.260	6.455	23.176	O.3	1	UNK0	0.000	
21	  O2	3.416	7.068	22.752	O.3	1	UNK0	0.000	
22	 C14	2.541	6.594	23.760	C.3	1	UNK0	0.000	
23	  O3	2.638	9.754	22.945	O.3	1	UNK0	0.000	
24	 C15	2.114	10.585	23.977	C.3	1	UNK0	0.000	
25	 C16	8.514	13.709	24.985	C.3	1	UNK0	0.000	
26	 C17	9.003	15.126	25.104	C.2	1	UNK0	0.000	
27	 C18	9.948	15.579	25.945	C.2	1	UNK0	0.000	
28	 C19	10.732	14.789	26.944	C.3	1	UNK0	0.000	
@<TRIPOS>BOND
1 1 2 2
2 1 10 1
3 1 11 1
4 2 3 1
5 3 4 1
6 3 9 2
7 4 5 1
8 4 6 2
9 6 7 1
10 7 8 2
11 8 9 1
12 9 10 1
13 10 25 1
14 11 14 1
15 12 13 1
16 12 17 2
17 12 20 1
18 13 14 2
19 13 18 1
20 14 15 1
21 15 16 2
22 16 17 1
23 16 23 1
24 17 21 1
25 19 20 1
26 21 22 1
27 23 24 1
28 25 26 1
29 26 27 2
30 27 28 1
@<TRIPOS>SUBSTRUCTURE
1	UNK0	1	GROUP	1 ****	UNK
