# created with PyMOL 2.5.0
@<TRIPOS>MOLECULE
data/HSP90/cocry_dataset/1uyd_PU8_LIG.pdb
28 30 1                 
SMALL
USER_CHARGES
@<TRIPOS>ATOM
1	  C1	6.969	12.436	24.007	C.2	1	UNK0	0.000	
2	  N1	5.653	12.526	23.852	N.2	1	UNK0	0.000	
3	  C2	5.279	13.668	24.522	C.2	1	UNK0	0.000	
4	  C3	4.022	14.224	24.826	C.2	1	UNK0	0.000	
5	  N2	2.817	13.637	24.468	N.pl3	1	UNK0	0.000	
6	  N3	3.982	15.380	25.528	N.2	1	UNK0	0.000	
7	  C4	5.151	15.928	25.926	C.2	1	UNK0	0.000	
8	  N4	6.405	15.482	25.705	N.2	1	UNK0	0.000	
9	  C5	6.391	14.341	24.997	C.2	1	UNK0	0.000	
10	  N5	7.463	13.558	24.646	N.pl3	1	UNK0	0.000	
11	  C6	7.784	11.222	23.647	C.3	1	UNK0	0.000	
12	  C7	5.246	9.068	21.718	C.2	1	UNK0	0.000	
13	  C8	6.324	9.953	21.963	C.2	1	UNK0	0.000	
14	  C9	6.885	10.065	23.242	C.2	1	UNK0	0.000	
15	 C10	6.537	9.094	24.192	C.2	1	UNK0	0.000	
16	 C11	5.608	8.086	23.905	C.2	1	UNK0	0.000	
17	 C12	4.903	8.094	22.683	C.2	1	UNK0	0.000	
18	 Cl1	7.071	10.806	20.636	Cl	1	UNK0	0.000	
19	 C13	4.548	7.859	19.824	C.3	1	UNK0	0.000	
20	  O1	4.580	9.118	20.514	O.3	1	UNK0	0.000	
21	  O2	3.930	7.136	22.584	O.3	1	UNK0	0.000	
22	 C14	2.677	7.299	23.224	C.3	1	UNK0	0.000	
23	  O3	5.425	7.216	24.954	O.3	1	UNK0	0.000	
24	 C15	6.330	6.118	25.033	C.3	1	UNK0	0.000	
25	 C16	8.827	13.797	25.097	C.3	1	UNK0	0.000	
26	 C17	9.084	15.227	25.486	C.2	1	UNK0	0.000	
27	 C18	10.047	15.672	26.309	C.2	1	UNK0	0.000	
28	 C19	11.085	14.862	27.019	C.3	1	UNK0	0.000	
@<TRIPOS>BOND
1 1 2 2
2 1 10 1
3 1 11 1
4 2 3 1
5 3 4 1
6 3 9 2
7 4 5 1
8 4 6 2
9 6 7 1
10 7 8 2
11 8 9 1
12 9 10 1
13 10 25 1
14 11 14 1
15 12 13 1
16 12 17 2
17 12 20 1
18 13 14 2
19 13 18 1
20 14 15 1
21 15 16 2
22 16 17 1
23 16 23 1
24 17 21 1
25 19 20 1
26 21 22 1
27 23 24 1
28 25 26 1
29 26 27 2
30 27 28 1
@<TRIPOS>SUBSTRUCTURE
1	UNK0	1	GROUP	1 ****	UNK
