# created with PyMOL 2.5.0
@<TRIPOS>MOLECULE
data/HSP90/cocry_dataset/1uyd_PU8_LIG.pdb
28 30 1                 
SMALL
USER_CHARGES
@<TRIPOS>ATOM
1	  C1	5.062	11.934	23.666	C.2	1	UNK0	0.000	
2	  N1	4.545	12.973	24.311	N.2	1	UNK0	0.000	
3	  C2	5.604	13.813	24.569	C.2	1	UNK0	0.000	
4	  C3	5.719	14.996	25.322	C.2	1	UNK0	0.000	
5	  N2	4.663	15.568	26.017	N.pl3	1	UNK0	0.000	
6	  N3	6.929	15.597	25.396	N.2	1	UNK0	0.000	
7	  C4	7.972	15.016	24.765	C.2	1	UNK0	0.000	
8	  N4	7.984	13.886	24.029	N.2	1	UNK0	0.000	
9	  C5	6.760	13.334	23.978	C.2	1	UNK0	0.000	
10	  N5	6.399	12.148	23.389	N.pl3	1	UNK0	0.000	
11	  C6	4.320	10.653	23.390	C.3	1	UNK0	0.000	
12	  C7	0.859	9.775	24.821	C.2	1	UNK0	0.000	
13	  C8	2.268	9.847	24.699	C.2	1	UNK0	0.000	
14	  C9	2.867	10.762	23.824	C.2	1	UNK0	0.000	
15	 C10	2.058	11.773	23.285	C.2	1	UNK0	0.000	
16	 C11	0.685	11.832	23.551	C.2	1	UNK0	0.000	
17	 C12	0.053	10.799	24.275	C.2	1	UNK0	0.000	
18	 Cl1	3.284	8.899	25.756	Cl	1	UNK0	0.000	
19	 C13	0.273	7.495	24.816	C.3	1	UNK0	0.000	
20	  O1	0.285	8.742	25.529	O.3	1	UNK0	0.000	
21	  O2	-1.310	10.909	24.346	O.3	1	UNK0	0.000	
22	 C14	-1.978	10.921	25.595	C.3	1	UNK0	0.000	
23	  O3	0.074	12.912	22.957	O.3	1	UNK0	0.000	
24	 C15	0.025	12.909	21.533	C.3	1	UNK0	0.000	
25	 C16	7.347	11.212	22.796	C.3	1	UNK0	0.000	
26	 C17	8.074	10.378	23.814	C.2	1	UNK0	0.000	
27	 C18	7.879	9.073	24.066	C.2	1	UNK0	0.000	
28	 C19	6.909	8.151	23.396	C.3	1	UNK0	0.000	
@<TRIPOS>BOND
1 1 2 2
2 1 10 1
3 1 11 1
4 2 3 1
5 3 4 1
6 3 9 2
7 4 5 1
8 4 6 2
9 6 7 1
10 7 8 2
11 8 9 1
12 9 10 1
13 10 25 1
14 11 14 1
15 12 13 1
16 12 17 2
17 12 20 1
18 13 14 2
19 13 18 1
20 14 15 1
21 15 16 2
22 16 17 1
23 16 23 1
24 17 21 1
25 19 20 1
26 21 22 1
27 23 24 1
28 25 26 1
29 26 27 2
30 27 28 1
@<TRIPOS>SUBSTRUCTURE
1	UNK0	1	GROUP	1 ****	UNK
