# created with PyMOL 2.5.0
@<TRIPOS>MOLECULE
data/HSP90/cocry_dataset/1uye_PU9_LIG.pdb
29 31 1                 
SMALL
USER_CHARGES
@<TRIPOS>ATOM
1	  C1	5.169	11.844	23.656	C.2	1	UNK0	0.000	
2	  N1	4.568	12.867	24.243	N.2	1	UNK0	0.000	
3	  C2	5.558	13.770	24.541	C.2	1	UNK0	0.000	
4	  C3	5.569	14.956	25.290	C.2	1	UNK0	0.000	
5	  N2	4.448	15.447	25.944	N.pl3	1	UNK0	0.000	
6	  N3	6.732	15.636	25.408	N.2	1	UNK0	0.000	
7	  C4	7.834	15.121	24.821	C.2	1	UNK0	0.000	
8	  N4	7.947	13.991	24.096	N.2	1	UNK0	0.000	
9	  C5	6.768	13.359	24.002	C.2	1	UNK0	0.000	
10	  N5	6.501	12.146	23.414	N.pl3	1	UNK0	0.000	
11	  C6	4.494	10.522	23.373	C.3	1	UNK0	0.000	
12	 Cl1	3.526	8.511	25.532	Cl	1	UNK0	0.000	
13	  C7	2.460	9.496	24.571	C.2	1	UNK0	0.000	
14	  C8	1.055	9.393	24.725	C.2	1	UNK0	0.000	
15	  C9	0.215	10.426	24.238	C.2	1	UNK0	0.000	
16	 C10	0.808	11.534	23.598	C.2	1	UNK0	0.000	
17	 C11	2.190	11.540	23.349	C.2	1	UNK0	0.000	
18	 C12	3.029	10.503	23.774	C.2	1	UNK0	0.000	
19	  O1	0.478	8.363	25.433	O.3	1	UNK0	0.000	
20	 C13	0.329	7.126	24.730	C.3	1	UNK0	0.000	
21	  O2	-1.150	10.471	24.327	O.3	1	UNK0	0.000	
22	 C14	-1.805	10.974	25.477	C.3	1	UNK0	0.000	
23	  O3	0.209	12.682	23.137	O.3	1	UNK0	0.000	
24	 C15	0.115	12.922	21.740	C.3	1	UNK0	0.000	
25	 C16	7.523	11.275	22.874	C.3	1	UNK0	0.000	
26	 C17	8.035	10.209	23.850	C.3	1	UNK0	0.000	
27	 C18	8.082	8.827	23.191	C.3	1	UNK0	0.000	
28	 C19	7.584	7.784	24.178	C.1	1	UNK0	0.000	
29	 C20	7.157	6.890	25.025	C.1	1	UNK0	0.000	
@<TRIPOS>BOND
1 1 2 2
2 1 10 1
3 1 11 1
4 2 3 1
5 3 4 1
6 3 9 2
7 4 5 1
8 4 6 2
9 6 7 1
10 7 8 2
11 8 9 1
12 9 10 1
13 10 25 1
14 11 18 1
15 12 13 1
16 13 14 1
17 13 18 2
18 14 15 2
19 14 19 1
20 15 16 1
21 15 21 1
22 16 17 2
23 16 23 1
24 17 18 1
25 19 20 1
26 21 22 1
27 23 24 1
28 25 26 1
29 26 27 1
30 27 28 1
31 28 29 3
@<TRIPOS>SUBSTRUCTURE
1	UNK0	1	GROUP	1 ****	UNK
