# created with PyMOL 2.5.0
@<TRIPOS>MOLECULE
data/HSP90/cocry_dataset/1uye_PU9_LIG.pdb
29 31 1                 
SMALL
USER_CHARGES
@<TRIPOS>ATOM
1	  C1	5.091	11.926	23.563	C.2	1	UNK0	0.000	
2	  N1	4.525	12.961	24.166	N.2	1	UNK0	0.000	
3	  C2	5.555	13.777	24.563	C.2	1	UNK0	0.000	
4	  C3	5.601	14.924	25.371	C.2	1	UNK0	0.000	
5	  N2	4.478	15.461	25.985	N.pl3	1	UNK0	0.000	
6	  N3	6.797	15.515	25.588	N.2	1	UNK0	0.000	
7	  C4	7.896	14.952	25.038	C.2	1	UNK0	0.000	
8	  N4	7.976	13.851	24.265	N.2	1	UNK0	0.000	
9	  C5	6.764	13.308	24.074	C.2	1	UNK0	0.000	
10	  N5	6.452	12.145	23.411	N.pl3	1	UNK0	0.000	
11	  C6	4.346	10.670	23.176	C.3	1	UNK0	0.000	
12	 Cl1	1.504	11.901	22.951	Cl	1	UNK0	0.000	
13	  C7	2.043	10.936	24.295	C.2	1	UNK0	0.000	
14	  C8	1.181	10.690	25.393	C.2	1	UNK0	0.000	
15	  C9	1.465	9.627	26.286	C.2	1	UNK0	0.000	
16	 C10	2.615	8.842	26.062	C.2	1	UNK0	0.000	
17	 C11	3.513	9.197	25.042	C.2	1	UNK0	0.000	
18	 C12	3.278	10.276	24.183	C.2	1	UNK0	0.000	
19	  O1	0.007	11.388	25.562	O.3	1	UNK0	0.000	
20	 C13	-1.151	10.828	24.938	C.3	1	UNK0	0.000	
21	  O2	0.720	9.262	27.375	O.3	1	UNK0	0.000	
22	 C14	-0.041	8.068	27.391	C.3	1	UNK0	0.000	
23	  O3	3.033	7.718	26.732	O.3	1	UNK0	0.000	
24	 C15	3.319	6.527	26.013	C.3	1	UNK0	0.000	
25	 C16	7.443	11.231	22.887	C.3	1	UNK0	0.000	
26	 C17	7.943	10.186	23.891	C.3	1	UNK0	0.000	
27	 C18	8.084	8.808	23.236	C.3	1	UNK0	0.000	
28	 C19	7.549	7.747	24.184	C.1	1	UNK0	0.000	
29	 C20	7.090	6.837	24.997	C.1	1	UNK0	0.000	
@<TRIPOS>BOND
1 1 2 2
2 1 10 1
3 1 11 1
4 2 3 1
5 3 4 1
6 3 9 2
7 4 5 1
8 4 6 2
9 6 7 1
10 7 8 2
11 8 9 1
12 9 10 1
13 10 25 1
14 11 18 1
15 12 13 1
16 13 14 1
17 13 18 2
18 14 15 2
19 14 19 1
20 15 16 1
21 15 21 1
22 16 17 2
23 16 23 1
24 17 18 1
25 19 20 1
26 21 22 1
27 23 24 1
28 25 26 1
29 26 27 1
30 27 28 1
31 28 29 3
@<TRIPOS>SUBSTRUCTURE
1	UNK0	1	GROUP	1 ****	UNK
