# created with PyMOL 2.5.0
@<TRIPOS>MOLECULE
data/HSP90/cocry_dataset/1uye_PU9_LIG.pdb
29 31 1                 
SMALL
USER_CHARGES
@<TRIPOS>ATOM
1	  C1	6.461	12.580	23.955	C.2	1	UNK0	0.000	
2	  N1	5.157	12.782	23.836	N.2	1	UNK0	0.000	
3	  C2	4.879	13.906	24.573	C.2	1	UNK0	0.000	
4	  C3	3.675	14.519	24.952	C.2	1	UNK0	0.000	
5	  N2	2.429	14.007	24.620	N.pl3	1	UNK0	0.000	
6	  N3	3.729	15.642	25.704	N.2	1	UNK0	0.000	
7	  C4	4.944	16.101	26.077	C.2	1	UNK0	0.000	
8	  N4	6.158	15.591	25.789	N.2	1	UNK0	0.000	
9	  C5	6.049	14.485	25.036	C.2	1	UNK0	0.000	
10	  N5	7.053	13.649	24.611	N.pl3	1	UNK0	0.000	
11	  C6	7.161	11.320	23.500	C.3	1	UNK0	0.000	
12	 Cl1	8.221	8.506	24.276	Cl	1	UNK0	0.000	
13	  C7	6.675	8.793	23.530	C.2	1	UNK0	0.000	
14	  C8	5.821	7.708	23.210	C.2	1	UNK0	0.000	
15	  C9	4.446	7.944	22.961	C.2	1	UNK0	0.000	
16	 C10	3.964	9.268	23.027	C.2	1	UNK0	0.000	
17	 C11	4.863	10.329	23.218	C.2	1	UNK0	0.000	
18	 C12	6.233	10.121	23.413	C.2	1	UNK0	0.000	
19	  O1	6.264	6.405	23.239	O.3	1	UNK0	0.000	
20	 C13	6.195	5.748	24.507	C.3	1	UNK0	0.000	
21	  O2	3.503	7.000	22.657	O.3	1	UNK0	0.000	
22	 C14	2.578	6.533	23.623	C.3	1	UNK0	0.000	
23	  O3	2.670	9.718	22.916	O.3	1	UNK0	0.000	
24	 C15	2.088	10.474	23.969	C.3	1	UNK0	0.000	
25	 C16	8.435	13.782	25.020	C.3	1	UNK0	0.000	
26	 C17	9.022	15.186	24.839	C.3	1	UNK0	0.000	
27	 C18	9.486	15.772	26.177	C.3	1	UNK0	0.000	
28	 C19	10.762	15.071	26.614	C.1	1	UNK0	0.000	
29	 C20	11.856	14.469	26.989	C.1	1	UNK0	0.000	
@<TRIPOS>BOND
1 1 2 2
2 1 10 1
3 1 11 1
4 2 3 1
5 3 4 1
6 3 9 2
7 4 5 1
8 4 6 2
9 6 7 1
10 7 8 2
11 8 9 1
12 9 10 1
13 10 25 1
14 11 18 1
15 12 13 1
16 13 14 1
17 13 18 2
18 14 15 2
19 14 19 1
20 15 16 1
21 15 21 1
22 16 17 2
23 16 23 1
24 17 18 1
25 19 20 1
26 21 22 1
27 23 24 1
28 25 26 1
29 26 27 1
30 27 28 1
31 28 29 3
@<TRIPOS>SUBSTRUCTURE
1	UNK0	1	GROUP	1 ****	UNK
