# created with PyMOL 2.5.0
@<TRIPOS>MOLECULE
data/HSP90/cocry_dataset/1uye_PU9_LIG.pdb
51 53 1                 
SMALL
USER_CHARGES
@<TRIPOS>ATOM
1	 H20	9.107	8.596	22.899	 H	1	UNK0	0.000	
2	 H21	7.447	8.823	22.304	 H	1	UNK0	0.000	
3	 H18	7.351	10.162	24.697	 H	1	UNK0	0.000	
4	 H22	6.800	6.142	25.733	 H	1	UNK0	0.000	
5	 H01	4.511	16.299	26.483	 H	1	UNK0	0.000	
6	 H19	9.038	10.481	24.180	 H	1	UNK0	0.000	
7	 H04	5.003	9.763	23.967	 H	1	UNK0	0.000	
8	 H03	8.752	15.695	24.950	 H	1	UNK0	0.000	
9	 H10	-2.809	10.553	25.536	 H	1	UNK0	0.000	
10	 H02	3.570	14.951	25.883	 H	1	UNK0	0.000	
11	 H08	1.268	6.873	24.237	 H	1	UNK0	0.000	
12	 H07	-0.458	7.226	23.982	 H	1	UNK0	0.000	
13	 H06	2.624	12.380	22.807	 H	1	UNK0	0.000	
14	 H09	0.063	6.338	25.434	 H	1	UNK0	0.000	
15	 H13	-0.313	13.910	21.570	 H	1	UNK0	0.000	
16	 H12	-1.870	12.060	25.414	 H	1	UNK0	0.000	
17	 H11	-1.242	10.694	26.368	 H	1	UNK0	0.000	
18	 H14	1.109	12.875	21.295	 H	1	UNK0	0.000	
19	 H17	7.112	10.768	22.001	 H	1	UNK0	0.000	
20	 H16	8.376	11.911	22.637	 H	1	UNK0	0.000	
21	 H15	-0.524	12.166	21.283	 H	1	UNK0	0.000	
22	 H05	4.564	10.318	22.304	 H	1	UNK0	0.000	
23	  C1	5.169	11.844	23.656	C.2	1	UNK0	0.000	
24	  N1	4.568	12.867	24.243	N.2	1	UNK0	0.000	
25	  C2	5.558	13.770	24.541	C.2	1	UNK0	0.000	
26	  C3	5.569	14.956	25.290	C.2	1	UNK0	0.000	
27	  N2	4.448	15.447	25.944	N.pl3	1	UNK0	0.000	
28	  N3	6.732	15.636	25.408	N.2	1	UNK0	0.000	
29	  C4	7.834	15.121	24.821	C.2	1	UNK0	0.000	
30	  N4	7.947	13.991	24.096	N.2	1	UNK0	0.000	
31	  C5	6.768	13.359	24.002	C.2	1	UNK0	0.000	
32	  N5	6.501	12.146	23.414	N.pl3	1	UNK0	0.000	
33	  C6	4.494	10.522	23.373	C.3	1	UNK0	0.000	
34	 Cl1	3.526	8.511	25.532	Cl	1	UNK0	0.000	
35	  C7	2.460	9.496	24.571	C.2	1	UNK0	0.000	
36	  C8	1.055	9.393	24.725	C.2	1	UNK0	0.000	
37	  C9	0.215	10.426	24.238	C.2	1	UNK0	0.000	
38	 C10	0.808	11.534	23.598	C.2	1	UNK0	0.000	
39	 C11	2.190	11.540	23.349	C.2	1	UNK0	0.000	
40	 C12	3.029	10.503	23.774	C.2	1	UNK0	0.000	
41	  O1	0.478	8.363	25.433	O.3	1	UNK0	0.000	
42	 C13	0.329	7.126	24.730	C.3	1	UNK0	0.000	
43	  O2	-1.150	10.471	24.327	O.3	1	UNK0	0.000	
44	 C14	-1.805	10.974	25.477	C.3	1	UNK0	0.000	
45	  O3	0.209	12.682	23.137	O.3	1	UNK0	0.000	
46	 C15	0.115	12.922	21.740	C.3	1	UNK0	0.000	
47	 C16	7.523	11.275	22.874	C.3	1	UNK0	0.000	
48	 C17	8.035	10.209	23.850	C.3	1	UNK0	0.000	
49	 C18	8.082	8.827	23.191	C.3	1	UNK0	0.000	
50	 C19	7.584	7.784	24.178	C.1	1	UNK0	0.000	
51	 C20	7.157	6.890	25.025	C.1	1	UNK0	0.000	
@<TRIPOS>BOND
1 23 24 2
2 23 32 1
3 24 25 1
4 25 26 1
5 25 31 2
6 26 27 1
7 26 28 2
8 5 27 1
9 10 27 1
10 28 29 1
11 8 29 1
12 29 30 2
13 30 31 1
14 31 32 1
15 32 47 1
16 7 33 1
17 22 33 1
18 23 33 1
19 34 35 1
20 35 36 1
21 35 40 2
22 36 37 2
23 36 41 1
24 37 38 1
25 37 43 1
26 38 39 2
27 38 45 1
28 13 39 1
29 39 40 1
30 33 40 1
31 41 42 1
32 11 42 1
33 12 42 1
34 14 42 1
35 43 44 1
36 9 44 1
37 16 44 1
38 17 44 1
39 45 46 1
40 15 46 1
41 18 46 1
42 21 46 1
43 19 47 1
44 20 47 1
45 47 48 1
46 3 48 1
47 6 48 1
48 48 49 1
49 1 49 1
50 2 49 1
51 49 50 1
52 50 51 3
53 4 51 1
@<TRIPOS>SUBSTRUCTURE
1	UNK0	1	GROUP	1 ****	UNK
