# created with PyMOL 2.5.0
@<TRIPOS>MOLECULE
data/HSP90/cocry_dataset/1uyf_PU1_LIG.pdb
30 32 1                 
SMALL
USER_CHARGES
@<TRIPOS>ATOM
1	  C1	4.934	12.082	23.701	C.2	1	UNK0	0.000	
2	  N1	4.331	13.082	24.323	N.2	1	UNK0	0.000	
3	  C2	5.331	13.974	24.676	C.2	1	UNK0	0.000	
4	  C3	5.346	15.140	25.467	C.2	1	UNK0	0.000	
5	  N2	4.232	15.690	26.083	N.pl3	1	UNK0	0.000	
6	  N3	6.530	15.772	25.656	N.2	1	UNK0	0.000	
7	  C4	7.640	15.244	25.103	C.2	1	UNK0	0.000	
8	  N4	7.738	14.145	24.331	N.2	1	UNK0	0.000	
9	  C5	6.543	13.554	24.174	C.2	1	UNK0	0.000	
10	  N5	6.282	12.376	23.524	N.pl3	1	UNK0	0.000	
11	  F1	8.791	15.882	25.372	 F	1	UNK0	0.000	
12	  C6	4.278	10.783	23.269	C.3	1	UNK0	0.000	
13	 Cl1	1.352	11.778	23.060	Cl	1	UNK0	0.000	
14	  C7	1.973	10.865	24.408	C.2	1	UNK0	0.000	
15	  C8	1.146	10.563	25.518	C.2	1	UNK0	0.000	
16	  C9	1.469	9.455	26.340	C.2	1	UNK0	0.000	
17	 C10	2.629	8.707	26.046	C.2	1	UNK0	0.000	
18	 C11	3.526	9.157	25.063	C.2	1	UNK0	0.000	
19	 C12	3.239	10.271	24.261	C.2	1	UNK0	0.000	
20	  O1	-0.007	11.253	25.807	O.3	1	UNK0	0.000	
21	 C13	-1.220	10.824	25.188	C.3	1	UNK0	0.000	
22	  O2	0.767	9.014	27.433	O.3	1	UNK0	0.000	
23	 C14	-0.007	7.827	27.388	C.3	1	UNK0	0.000	
24	  O3	3.061	7.563	26.680	O.3	1	UNK0	0.000	
25	 C15	3.554	6.504	25.860	C.3	1	UNK0	0.000	
26	 C16	7.303	11.538	22.924	C.3	1	UNK0	0.000	
27	 C17	7.853	10.472	23.878	C.3	1	UNK0	0.000	
28	 C18	8.002	9.112	23.190	C.3	1	UNK0	0.000	
29	 C19	7.615	8.023	24.099	C.1	1	UNK0	0.000	
30	 C20	7.345	7.077	24.796	C.1	1	UNK0	0.000	
@<TRIPOS>BOND
1 1 2 2
2 1 10 1
3 1 12 1
4 2 3 1
5 3 4 1
6 3 9 2
7 4 5 1
8 4 6 2
9 6 7 1
10 7 8 2
11 7 11 1
12 8 9 1
13 9 10 1
14 10 26 1
15 12 19 1
16 13 14 1
17 14 15 1
18 14 19 2
19 15 16 2
20 15 20 1
21 16 17 1
22 16 22 1
23 17 18 2
24 17 24 1
25 18 19 1
26 20 21 1
27 22 23 1
28 24 25 1
29 26 27 1
30 27 28 1
31 28 29 1
32 29 30 3
@<TRIPOS>SUBSTRUCTURE
1	UNK0	1	GROUP	1 ****	UNK
