# created with PyMOL 2.5.0
@<TRIPOS>MOLECULE
data/HSP90/cocry_dataset/1uyf_PU1_LIG.pdb
30 32 1                 
SMALL
USER_CHARGES
@<TRIPOS>ATOM
1	  C1	5.129	11.953	23.759	C.2	1	UNK0	0.000	
2	  N1	4.587	12.997	24.367	N.2	1	UNK0	0.000	
3	  C2	5.620	13.892	24.589	C.2	1	UNK0	0.000	
4	  C3	5.710	15.101	25.307	C.2	1	UNK0	0.000	
5	  N2	4.652	15.702	25.974	N.pl3	1	UNK0	0.000	
6	  N3	6.911	15.724	25.367	N.2	1	UNK0	0.000	
7	  C4	7.969	15.149	24.762	C.2	1	UNK0	0.000	
8	  N4	7.995	14.006	24.050	N.2	1	UNK0	0.000	
9	  C5	6.786	13.425	24.021	C.2	1	UNK0	0.000	
10	  N5	6.461	12.216	23.462	N.pl3	1	UNK0	0.000	
11	  F1	9.144	15.784	24.904	 F	1	UNK0	0.000	
12	  C6	4.427	10.642	23.456	C.3	1	UNK0	0.000	
13	 Cl1	3.380	8.797	25.712	Cl	1	UNK0	0.000	
14	  C7	2.346	9.671	24.614	C.2	1	UNK0	0.000	
15	  C8	0.937	9.537	24.687	C.2	1	UNK0	0.000	
16	  C9	0.117	10.569	24.166	C.2	1	UNK0	0.000	
17	 C10	0.733	11.683	23.556	C.2	1	UNK0	0.000	
18	 C11	2.118	11.682	23.326	C.2	1	UNK0	0.000	
19	 C12	2.943	10.655	23.806	C.2	1	UNK0	0.000	
20	  O1	0.313	8.480	25.305	O.3	1	UNK0	0.000	
21	 C13	0.408	7.193	24.695	C.3	1	UNK0	0.000	
22	  O2	-1.254	10.609	24.176	O.3	1	UNK0	0.000	
23	 C14	-1.975	10.998	25.332	C.3	1	UNK0	0.000	
24	  O3	0.109	12.808	23.064	O.3	1	UNK0	0.000	
25	 C15	-0.042	12.908	21.648	C.3	1	UNK0	0.000	
26	 C16	7.424	11.330	22.835	C.3	1	UNK0	0.000	
27	 C17	8.078	10.350	23.816	C.3	1	UNK0	0.000	
28	 C18	8.202	8.945	23.222	C.3	1	UNK0	0.000	
29	 C19	7.613	7.944	24.125	C.1	1	UNK0	0.000	
30	 C20	7.188	7.068	24.835	C.1	1	UNK0	0.000	
@<TRIPOS>BOND
1 1 2 2
2 1 10 1
3 1 12 1
4 2 3 1
5 3 4 1
6 3 9 2
7 4 5 1
8 4 6 2
9 6 7 1
10 7 8 2
11 7 11 1
12 8 9 1
13 9 10 1
14 10 26 1
15 12 19 1
16 13 14 1
17 14 15 1
18 14 19 2
19 15 16 2
20 15 20 1
21 16 17 1
22 16 22 1
23 17 18 2
24 17 24 1
25 18 19 1
26 20 21 1
27 22 23 1
28 24 25 1
29 26 27 1
30 27 28 1
31 28 29 1
32 29 30 3
@<TRIPOS>SUBSTRUCTURE
1	UNK0	1	GROUP	1 ****	UNK
