# created with PyMOL 2.5.0
@<TRIPOS>MOLECULE
data/HSP90/cocry_dataset/1uyf_PU1_LIG.pdb
30 32 1                 
SMALL
USER_CHARGES
@<TRIPOS>ATOM
1	  C1	4.451	11.463	23.589	C.2	1	UNK0	0.000	
2	  N1	5.709	11.873	23.631	N.2	1	UNK0	0.000	
3	  C2	5.693	13.100	24.273	C.2	1	UNK0	0.000	
4	  C3	6.676	14.085	24.494	C.2	1	UNK0	0.000	
5	  N2	7.999	13.982	24.091	N.pl3	1	UNK0	0.000	
6	  N3	6.313	15.222	25.136	N.2	1	UNK0	0.000	
7	  C4	5.027	15.372	25.509	C.2	1	UNK0	0.000	
8	  N4	4.013	14.498	25.353	N.2	1	UNK0	0.000	
9	  C5	4.420	13.392	24.713	C.2	1	UNK0	0.000	
10	  N5	3.644	12.334	24.312	N.pl3	1	UNK0	0.000	
11	  F1	4.715	16.542	26.088	 F	1	UNK0	0.000	
12	  C6	3.941	10.247	22.839	C.3	1	UNK0	0.000	
13	 Cl1	1.653	8.569	24.082	Cl	1	UNK0	0.000	
14	  C7	3.346	8.248	24.344	C.2	1	UNK0	0.000	
15	  C8	3.758	7.193	25.196	C.2	1	UNK0	0.000	
16	  C9	5.048	6.632	25.028	C.2	1	UNK0	0.000	
17	 C10	5.898	7.169	24.037	C.2	1	UNK0	0.000	
18	 C11	5.529	8.339	23.353	C.2	1	UNK0	0.000	
19	 C12	4.269	8.928	23.529	C.2	1	UNK0	0.000	
20	  O1	2.939	6.629	26.144	O.3	1	UNK0	0.000	
21	 C13	2.733	7.342	27.364	C.3	1	UNK0	0.000	
22	  O2	5.592	5.599	25.747	O.3	1	UNK0	0.000	
23	 C14	6.370	5.833	26.909	C.3	1	UNK0	0.000	
24	  O3	7.147	6.712	23.680	O.3	1	UNK0	0.000	
25	 C15	8.254	7.585	23.902	C.3	1	UNK0	0.000	
26	 C16	2.205	12.274	24.487	C.3	1	UNK0	0.000	
27	 C17	1.445	13.303	23.643	C.3	1	UNK0	0.000	
28	 C18	0.399	12.642	22.743	C.3	1	UNK0	0.000	
29	 C19	-0.629	11.965	23.549	C.1	1	UNK0	0.000	
30	 C20	-1.510	11.390	24.137	C.1	1	UNK0	0.000	
@<TRIPOS>BOND
1 1 2 2
2 1 10 1
3 1 12 1
4 2 3 1
5 3 4 1
6 3 9 2
7 4 5 1
8 4 6 2
9 6 7 1
10 7 8 2
11 7 11 1
12 8 9 1
13 9 10 1
14 10 26 1
15 12 19 1
16 13 14 1
17 14 15 1
18 14 19 2
19 15 16 2
20 15 20 1
21 16 17 1
22 16 22 1
23 17 18 2
24 17 24 1
25 18 19 1
26 20 21 1
27 22 23 1
28 24 25 1
29 26 27 1
30 27 28 1
31 28 29 1
32 29 30 3
@<TRIPOS>SUBSTRUCTURE
1	UNK0	1	GROUP	1 ****	UNK
