# created with PyMOL 2.5.0
@<TRIPOS>MOLECULE
data/HSP90/cocry_dataset/1uyf_PU1_LIG.pdb
51 53 1                 
SMALL
USER_CHARGES
@<TRIPOS>ATOM
1	 H19	9.259	8.715	23.087	 H	1	UNK0	0.000	
2	 H03	4.896	9.876	24.073	 H	1	UNK0	0.000	
3	 H20	7.682	8.914	22.265	 H	1	UNK0	0.000	
4	 H17	7.447	10.288	24.703	 H	1	UNK0	0.000	
5	 H04	4.530	10.433	22.391	 H	1	UNK0	0.000	
6	 H18	9.073	10.716	24.069	 H	1	UNK0	0.000	
7	 H02	3.738	15.273	25.962	 H	1	UNK0	0.000	
8	 H01	4.797	16.569	26.472	 H	1	UNK0	0.000	
9	 H08	0.130	7.268	23.643	 H	1	UNK0	0.000	
10	 H21	6.803	6.275	25.476	 H	1	UNK0	0.000	
11	 H06	1.432	6.829	24.774	 H	1	UNK0	0.000	
12	 H05	2.563	12.500	22.760	 H	1	UNK0	0.000	
13	 H16	6.914	10.756	22.062	 H	1	UNK0	0.000	
14	 H07	-0.264	6.500	25.201	 H	1	UNK0	0.000	
15	 H11	-2.064	12.084	25.358	 H	1	UNK0	0.000	
16	 H10	-1.449	10.655	26.223	 H	1	UNK0	0.000	
17	 H09	-2.970	10.553	25.306	 H	1	UNK0	0.000	
18	 H12	-0.662	13.773	21.410	 H	1	UNK0	0.000	
19	 H15	8.219	11.954	22.427	 H	1	UNK0	0.000	
20	 H14	-0.519	12.005	21.268	 H	1	UNK0	0.000	
21	 H13	0.937	13.026	21.185	 H	1	UNK0	0.000	
22	  C1	5.129	11.953	23.759	C.2	1	UNK0	0.000	
23	  N1	4.587	12.997	24.367	N.2	1	UNK0	0.000	
24	  C2	5.620	13.892	24.589	C.2	1	UNK0	0.000	
25	  C3	5.710	15.101	25.307	C.2	1	UNK0	0.000	
26	  N2	4.652	15.702	25.974	N.pl3	1	UNK0	0.000	
27	  N3	6.911	15.724	25.367	N.2	1	UNK0	0.000	
28	  C4	7.969	15.149	24.762	C.2	1	UNK0	0.000	
29	  N4	7.995	14.006	24.050	N.2	1	UNK0	0.000	
30	  C5	6.786	13.425	24.021	C.2	1	UNK0	0.000	
31	  N5	6.461	12.216	23.462	N.pl3	1	UNK0	0.000	
32	  F1	9.144	15.784	24.904	 F	1	UNK0	0.000	
33	  C6	4.427	10.642	23.456	C.3	1	UNK0	0.000	
34	 Cl1	3.380	8.797	25.712	Cl	1	UNK0	0.000	
35	  C7	2.346	9.671	24.614	C.2	1	UNK0	0.000	
36	  C8	0.937	9.537	24.687	C.2	1	UNK0	0.000	
37	  C9	0.117	10.569	24.166	C.2	1	UNK0	0.000	
38	 C10	0.733	11.683	23.556	C.2	1	UNK0	0.000	
39	 C11	2.118	11.682	23.326	C.2	1	UNK0	0.000	
40	 C12	2.943	10.655	23.806	C.2	1	UNK0	0.000	
41	  O1	0.313	8.480	25.305	O.3	1	UNK0	0.000	
42	 C13	0.408	7.193	24.695	C.3	1	UNK0	0.000	
43	  O2	-1.254	10.609	24.176	O.3	1	UNK0	0.000	
44	 C14	-1.975	10.998	25.332	C.3	1	UNK0	0.000	
45	  O3	0.109	12.808	23.064	O.3	1	UNK0	0.000	
46	 C15	-0.042	12.908	21.648	C.3	1	UNK0	0.000	
47	 C16	7.424	11.330	22.835	C.3	1	UNK0	0.000	
48	 C17	8.078	10.350	23.816	C.3	1	UNK0	0.000	
49	 C18	8.202	8.945	23.222	C.3	1	UNK0	0.000	
50	 C19	7.613	7.944	24.125	C.1	1	UNK0	0.000	
51	 C20	7.188	7.068	24.835	C.1	1	UNK0	0.000	
@<TRIPOS>BOND
1 22 23 2
2 22 31 1
3 23 24 1
4 24 25 1
5 24 30 2
6 25 26 1
7 25 27 2
8 7 26 1
9 8 26 1
10 27 28 1
11 28 29 2
12 28 32 1
13 29 30 1
14 30 31 1
15 31 47 1
16 2 33 1
17 5 33 1
18 22 33 1
19 34 35 1
20 35 36 1
21 35 40 2
22 36 37 2
23 36 41 1
24 37 38 1
25 37 43 1
26 38 39 2
27 38 45 1
28 12 39 1
29 39 40 1
30 33 40 1
31 41 42 1
32 9 42 1
33 11 42 1
34 14 42 1
35 43 44 1
36 15 44 1
37 16 44 1
38 17 44 1
39 45 46 1
40 18 46 1
41 20 46 1
42 21 46 1
43 13 47 1
44 19 47 1
45 47 48 1
46 4 48 1
47 6 48 1
48 48 49 1
49 1 49 1
50 3 49 1
51 49 50 1
52 50 51 3
53 10 51 1
@<TRIPOS>SUBSTRUCTURE
1	UNK0	1	GROUP	1 ****	UNK
