# created with PyMOL 2.5.0
@<TRIPOS>MOLECULE
MOL
48 52 1                 
SMALL
USER_CHARGES
@<TRIPOS>ATOM
1	 H10	9.875	1.127	19.580	 H	1	UNK0	0.000	
2	 H07	4.115	6.410	24.021	 H	1	UNK0	0.000	
3	 H17	6.423	6.869	25.301	 H	1	UNK0	0.000	
4	 H08	5.547	5.415	23.704	 H	1	UNK0	0.000	
5	 H13	10.698	9.857	23.483	 H	1	UNK0	0.000	
6	 H09	4.330	1.267	19.091	 H	1	UNK0	0.000	
7	 H11	9.996	-0.243	17.528	 H	1	UNK0	0.000	
8	 H15	8.854	7.714	27.058	 H	1	UNK0	0.000	
9	 H03	5.812	4.572	19.858	 H	1	UNK0	0.000	
10	 H12	7.894	-0.853	16.412	 H	1	UNK0	0.000	
11	 H01	6.792	5.670	21.775	 H	1	UNK0	0.000	
12	 H02	6.390	6.903	20.562	 H	1	UNK0	0.000	
13	 H14	12.144	9.098	25.379	 H	1	UNK0	0.000	
14	 H16	9.407	6.261	26.048	 H	1	UNK0	0.000	
15	 H06	2.864	5.294	22.247	 H	1	UNK0	0.000	
16	 H05	3.603	4.035	23.293	 H	1	UNK0	0.000	
17	 H04	4.400	5.677	19.894	 H	1	UNK0	0.000	
18	  N1	5.123	6.849	22.225	N.3	1	UNK0	0.000	
19	  C1	5.975	6.173	21.258	C.3	1	UNK0	0.000	
20	  C2	5.144	5.153	20.494	C.3	1	UNK0	0.000	
21	  N2	4.460	4.233	21.404	N.pl3	1	UNK0	0.000	
22	  C3	4.781	2.910	21.524	C.2	1	UNK0	0.000	
23	  O1	4.396	2.312	22.531	O.2	1	UNK0	0.000	
24	  C4	3.795	4.827	22.569	C.3	1	UNK0	0.000	
25	  C5	4.680	5.892	23.246	C.3	1	UNK0	0.000	
26	  C6	5.596	2.216	20.632	C.2	1	UNK0	0.000	
27	  C7	5.332	1.452	19.478	C.2	1	UNK0	0.000	
28	  C8	6.523	0.945	18.872	C.2	1	UNK0	0.000	
29	  C9	7.708	1.325	19.571	C.2	1	UNK0	0.000	
30	  S1	7.285	2.268	20.891	S.3	1	UNK0	0.000	
31	 C10	8.957	0.861	19.057	C.2	1	UNK0	0.000	
32	 C11	9.036	0.090	17.924	C.2	1	UNK0	0.000	
33	 C12	7.859	-0.244	17.315	C.2	1	UNK0	0.000	
34	  N3	6.690	0.137	17.769	N.pl3	1	UNK0	0.000	
35	  O2	5.654	-0.268	17.086	O.2	1	UNK0	0.000	
36	  S2	5.578	8.447	22.690	S.o2	1	UNK0	0.000	
37	  O3	4.513	8.908	23.576	O.2	1	UNK0	0.000	
38	  O4	5.952	9.137	21.484	O.2	1	UNK0	0.000	
39	  N4	7.998	8.989	23.268	N.2	1	UNK0	0.000	
40	 C13	9.026	8.727	24.169	C.2	1	UNK0	0.000	
41	 C14	10.307	9.172	24.236	C.2	1	UNK0	0.000	
42	 C15	11.120	8.732	25.295	C.2	1	UNK0	0.000	
43	 C16	10.630	7.831	26.241	C.2	1	UNK0	0.000	
44	 Cl1	11.692	7.297	27.509	Cl	1	UNK0	0.000	
45	 C17	9.335	7.344	26.153	C.3	1	UNK0	0.000	
46	 C18	8.521	7.793	25.141	C.2	1	UNK0	0.000	
47	 C19	7.134	7.519	24.792	C.2	1	UNK0	0.000	
48	 C20	6.939	8.281	23.663	C.2	1	UNK0	0.000	
@<TRIPOS>BOND
1 18 19 1
2 18 25 1
3 18 36 1
4 11 19 1
5 12 19 1
6 19 20 1
7 9 20 1
8 17 20 1
9 20 21 1
10 21 22 1
11 21 24 1
12 22 23 2
13 22 26 1
14 15 24 1
15 16 24 1
16 24 25 1
17 2 25 1
18 4 25 1
19 26 27 2
20 26 30 1
21 6 27 1
22 27 28 1
23 28 29 1
24 28 34 2
25 29 30 1
26 29 31 2
27 1 31 1
28 31 32 1
29 7 32 1
30 32 33 2
31 10 33 1
32 33 34 1
33 34 35 1
34 36 37 2
35 36 38 2
36 36 48 1
37 39 40 1
38 39 48 2
39 40 41 2
40 40 46 1
41 5 41 1
42 41 42 1
43 13 42 1
44 42 43 2
45 43 44 1
46 43 45 1
47 8 45 1
48 14 45 1
49 45 46 1
50 46 47 2
51 3 47 1
52 47 48 1
@<TRIPOS>SUBSTRUCTURE
1	UNK0	1	GROUP	1 ****	UNK
