# created with PyMOL 2.5.0
@<TRIPOS>MOLECULE
MOL
56 60 1                 
SMALL
USER_CHARGES
@<TRIPOS>ATOM
1	 H17	4.493	3.076	20.176	 H	1	UNK0	0.000	
2	 H19	5.719	0.663	16.758	 H	1	UNK0	0.000	
3	 H16	1.337	-6.009	24.361	 H	1	UNK0	0.000	
4	 H10	0.568	-5.998	21.448	 H	1	UNK0	0.000	
5	 H06	3.908	-0.962	24.531	 H	1	UNK0	0.000	
6	 H20	8.941	2.311	20.221	 H	1	UNK0	0.000	
7	 H21	7.349	-0.972	16.021	 H	1	UNK0	0.000	
8	 H22	11.235	-1.212	17.907	 H	1	UNK0	0.000	
9	 H07	3.137	-3.304	24.630	 H	1	UNK0	0.000	
10	 H02	2.787	3.645	22.249	 H	1	UNK0	0.000	
11	 H05	1.864	1.851	23.456	 H	1	UNK0	0.000	
12	 H04	3.249	1.688	24.501	 H	1	UNK0	0.000	
13	 H15	-0.415	-3.710	24.568	 H	1	UNK0	0.000	
14	 H03	3.769	3.832	23.681	 H	1	UNK0	0.000	
15	 H01	5.666	2.838	22.697	 H	1	UNK0	0.000	
16	 H09	2.538	-5.263	22.547	 H	1	UNK0	0.000	
17	 H08	1.223	-2.857	20.809	 H	1	UNK0	0.000	
18	 H11	0.451	-4.300	21.059	 H	1	UNK0	0.000	
19	 H14	-0.780	-5.403	24.879	 H	1	UNK0	0.000	
20	 H13	-1.334	-3.982	22.479	 H	1	UNK0	0.000	
21	 H12	-1.427	-5.724	22.659	 H	1	UNK0	0.000	
22	 H23	10.629	0.630	19.435	 H	1	UNK0	0.000	
23	 H18	5.083	2.520	18.303	 H	1	UNK0	0.000	
24	  N1	3.466	0.799	22.581	N.pl3	1	UNK0	0.000	
25	  C1	4.438	1.258	21.751	C.2	1	UNK0	0.000	
26	  O1	4.989	0.629	20.862	O.2	1	UNK0	0.000	
27	  C2	4.752	2.714	22.115	C.3	1	UNK0	0.000	
28	  C3	3.511	3.134	22.884	C.3	1	UNK0	0.000	
29	  C4	2.954	1.840	23.463	C.3	1	UNK0	0.000	
30	  F1	1.921	-0.439	20.503	 F	1	UNK0	0.000	
31	  C5	2.251	-1.141	21.585	C.2	1	UNK0	0.000	
32	  C6	3.001	-0.557	22.611	C.2	1	UNK0	0.000	
33	  C7	3.318	-1.370	23.711	C.2	1	UNK0	0.000	
34	  C8	2.885	-2.694	23.762	C.2	1	UNK0	0.000	
35	  C9	2.137	-3.255	22.729	C.2	1	UNK0	0.000	
36	 C10	1.816	-2.451	21.629	C.2	1	UNK0	0.000	
37	 C11	1.657	-4.685	22.826	C.3	1	UNK0	0.000	
38	 C12	0.483	-5.005	21.889	C.3	1	UNK0	0.000	
39	 C13	-0.764	-4.865	22.767	C.3	1	UNK0	0.000	
40	 C14	-0.252	-4.726	24.208	C.3	1	UNK0	0.000	
41	  N2	1.183	-5.028	24.176	N.3	1	UNK0	0.000	
42	  N3	4.992	3.526	20.930	N.3	1	UNK0	0.000	
43	  S1	6.481	3.825	20.368	S.o2	1	UNK0	0.000	
44	  O2	6.249	4.922	19.492	O.2	1	UNK0	0.000	
45	  O3	7.442	3.948	21.427	O.2	1	UNK0	0.000	
46	 C15	6.995	2.489	19.333	C.2	1	UNK0	0.000	
47	 C16	6.066	2.054	18.373	C.2	1	UNK0	0.000	
48	 C17	6.422	1.018	17.512	C.2	1	UNK0	0.000	
49	 C18	7.700	0.434	17.624	C.2	1	UNK0	0.000	
50	 C19	8.630	0.881	18.601	C.2	1	UNK0	0.000	
51	 C20	8.250	1.939	19.465	C.2	1	UNK0	0.000	
52	 C21	8.055	-0.607	16.768	C.2	1	UNK0	0.000	
53	 C22	9.320	-1.174	16.877	C.2	1	UNK0	0.000	
54	 Cl1	9.680	-2.458	15.768	Cl	1	UNK0	0.000	
55	 C23	10.254	-0.741	17.839	C.2	1	UNK0	0.000	
56	 C24	9.914	0.280	18.690	C.2	1	UNK0	0.000	
@<TRIPOS>BOND
1 24 25 1
2 24 29 1
3 24 32 1
4 25 26 2
5 25 27 1
6 15 27 1
7 27 28 1
8 27 42 1
9 10 28 1
10 14 28 1
11 28 29 1
12 11 29 1
13 12 29 1
14 30 31 1
15 31 32 1
16 31 36 2
17 32 33 2
18 5 33 1
19 33 34 1
20 9 34 1
21 34 35 2
22 35 36 1
23 35 37 1
24 17 36 1
25 16 37 1
26 37 38 1
27 37 41 1
28 4 38 1
29 18 38 1
30 38 39 1
31 20 39 1
32 21 39 1
33 39 40 1
34 13 40 1
35 19 40 1
36 40 41 1
37 3 41 1
38 1 42 1
39 42 43 1
40 43 44 2
41 43 45 2
42 43 46 1
43 46 47 2
44 46 51 1
45 23 47 1
46 47 48 1
47 2 48 1
48 48 49 2
49 49 50 1
50 49 52 1
51 50 51 2
52 50 56 1
53 6 51 1
54 7 52 1
55 52 53 2
56 53 54 1
57 53 55 1
58 8 55 1
59 55 56 2
60 22 56 1
@<TRIPOS>SUBSTRUCTURE
1	UNK0	1	GROUP	1 ****	UNK
