# created with PyMOL 2.5.0
@<TRIPOS>MOLECULE
MOL
48 52 1                 
SMALL
USER_CHARGES
@<TRIPOS>ATOM
1	 H10	10.263	0.956	19.553	 H	1	UNK0	0.000	
2	 H07	2.849	5.407	22.218	 H	1	UNK0	0.000	
3	 H17	6.866	8.950	20.336	 H	1	UNK0	0.000	
4	 H08	4.493	4.744	22.236	 H	1	UNK0	0.000	
5	 H13	6.672	7.141	25.550	 H	1	UNK0	0.000	
6	 H09	5.005	0.294	17.843	 H	1	UNK0	0.000	
7	 H11	11.034	-0.361	17.610	 H	1	UNK0	0.000	
8	 H15	9.373	8.367	22.090	 H	1	UNK0	0.000	
9	 H03	5.585	3.673	18.599	 H	1	UNK0	0.000	
10	 H12	9.343	-1.259	16.070	 H	1	UNK0	0.000	
11	 H01	5.966	5.119	20.497	 H	1	UNK0	0.000	
12	 H02	5.524	6.124	19.101	 H	1	UNK0	0.000	
13	 H14	9.014	7.901	25.991	 H	1	UNK0	0.000	
14	 H16	8.730	10.025	22.615	 H	1	UNK0	0.000	
15	 H06	2.187	3.893	20.422	 H	1	UNK0	0.000	
16	 H05	2.987	2.927	21.707	 H	1	UNK0	0.000	
17	 H04	3.985	4.424	18.294	 H	1	UNK0	0.000	
18	  N1	4.033	5.917	20.553	N.3	1	UNK0	0.000	
19	  C1	5.162	5.378	19.809	C.3	1	UNK0	0.000	
20	  C2	4.710	4.135	19.055	C.3	1	UNK0	0.000	
21	  N2	4.092	3.161	19.956	N.pl3	1	UNK0	0.000	
22	  C3	4.662	1.961	20.278	C.2	1	UNK0	0.000	
23	  O1	4.247	1.375	21.279	O.2	1	UNK0	0.000	
24	  C4	3.127	3.680	20.932	C.3	1	UNK0	0.000	
25	  C5	3.636	4.972	21.602	C.3	1	UNK0	0.000	
26	  C6	5.747	1.401	19.605	C.2	1	UNK0	0.000	
27	  C7	5.859	0.618	18.439	C.2	1	UNK0	0.000	
28	  C8	7.215	0.296	18.124	C.2	1	UNK0	0.000	
29	  C9	8.148	0.838	19.059	C.2	1	UNK0	0.000	
30	  S1	7.310	1.696	20.230	S.3	1	UNK0	0.000	
31	 C10	9.533	0.565	18.846	C.2	1	UNK0	0.000	
32	 C11	9.972	-0.176	17.776	C.2	1	UNK0	0.000	
33	 C12	9.021	-0.670	16.929	C.2	1	UNK0	0.000	
34	  N3	7.738	-0.468	17.103	N.pl3	1	UNK0	0.000	
35	  O2	6.950	-1.012	16.218	O.2	1	UNK0	0.000	
36	  S2	4.050	7.610	20.888	S.o2	1	UNK0	0.000	
37	  O3	2.977	7.822	21.853	O.2	1	UNK0	0.000	
38	  O4	4.112	8.282	19.617	O.2	1	UNK0	0.000	
39	  N4	5.483	7.481	22.989	N.2	1	UNK0	0.000	
40	 C13	6.722	7.814	23.529	C.2	1	UNK0	0.000	
41	 C14	7.252	7.625	24.765	C.2	1	UNK0	0.000	
42	 C15	8.564	8.067	25.012	C.2	1	UNK0	0.000	
43	 C16	9.295	8.715	24.016	C.2	1	UNK0	0.000	
44	 Cl1	10.899	9.268	24.391	Cl	1	UNK0	0.000	
45	 C17	8.742	8.945	22.765	C.3	1	UNK0	0.000	
46	 C18	7.473	8.487	22.503	C.2	1	UNK0	0.000	
47	 C19	6.635	8.528	21.314	C.2	1	UNK0	0.000	
48	 C20	5.479	7.905	21.725	C.2	1	UNK0	0.000	
@<TRIPOS>BOND
1 18 19 1
2 18 25 1
3 18 36 1
4 11 19 1
5 12 19 1
6 19 20 1
7 9 20 1
8 17 20 1
9 20 21 1
10 21 22 1
11 21 24 1
12 22 23 2
13 22 26 1
14 15 24 1
15 16 24 1
16 24 25 1
17 2 25 1
18 4 25 1
19 26 27 2
20 26 30 1
21 6 27 1
22 27 28 1
23 28 29 1
24 28 34 2
25 29 30 1
26 29 31 2
27 1 31 1
28 31 32 1
29 7 32 1
30 32 33 2
31 10 33 1
32 33 34 1
33 34 35 1
34 36 37 2
35 36 38 2
36 36 48 1
37 39 40 1
38 39 48 2
39 40 41 2
40 40 46 1
41 5 41 1
42 41 42 1
43 13 42 1
44 42 43 2
45 43 44 1
46 43 45 1
47 8 45 1
48 14 45 1
49 45 46 1
50 46 47 2
51 3 47 1
52 47 48 1
@<TRIPOS>SUBSTRUCTURE
1	UNK0	1	GROUP	1 ****	UNK
