# created with PyMOL 2.5.0
@<TRIPOS>MOLECULE
ZINC31490747
73 78 1                 
SMALL
USER_CHARGES
@<TRIPOS>ATOM
1	 H03	4.660	0.297	11.631	 H	1	UNK0	0.000	
2	 H05	11.403	-1.342	17.399	 H	1	UNK0	0.000	
3	 H04	4.816	0.167	17.989	 H	1	UNK0	0.000	
4	 H10	6.559	5.013	21.519	 H	1	UNK0	0.000	
5	 H09	4.503	4.289	20.361	 H	1	UNK0	0.000	
6	 H08	4.548	2.421	18.782	 H	1	UNK0	0.000	
7	 H06	11.239	0.535	18.949	 H	1	UNK0	0.000	
8	 H11	8.687	3.885	21.123	 H	1	UNK0	0.000	
9	 H18	4.830	2.723	12.129	 H	1	UNK0	0.000	
10	 H13	11.390	-2.659	16.613	 H	1	UNK0	0.000	
11	 H16	7.299	2.935	12.850	 H	1	UNK0	0.000	
12	 H15	10.862	-3.647	15.231	 H	1	UNK0	0.000	
13	 H26	6.954	4.588	11.461	 H	1	UNK0	0.000	
14	 H14	10.295	-4.038	16.873	 H	1	UNK0	0.000	
15	 H07	7.226	-1.099	16.500	 H	1	UNK0	0.000	
16	 H12	9.841	2.162	19.963	 H	1	UNK0	0.000	
17	 H22	3.020	4.692	11.286	 H	1	UNK0	0.000	
18	 H19	4.981	5.303	13.587	 H	1	UNK0	0.000	
19	 H25	6.157	3.417	10.413	 H	1	UNK0	0.000	
20	 H24	4.700	5.055	9.676	 H	1	UNK0	0.000	
21	 H23	5.540	6.243	10.647	 H	1	UNK0	0.000	
22	 H34	6.059	-5.103	11.797	 H	1	UNK0	0.000	
23	 H29	5.677	-1.242	11.618	 H	1	UNK0	0.000	
24	 H28	4.084	-2.274	13.823	 H	1	UNK0	0.000	
25	 H27	3.562	-1.139	12.556	 H	1	UNK0	0.000	
26	 H30	6.407	-2.881	13.982	 H	1	UNK0	0.000	
27	 H33	7.982	-2.813	11.331	 H	1	UNK0	0.000	
28	 H32	8.091	-4.036	12.555	 H	1	UNK0	0.000	
29	 H31	7.281	-1.555	13.280	 H	1	UNK0	0.000	
30	 H17	6.500	3.928	14.092	 H	1	UNK0	0.000	
31	 H21	3.455	6.266	11.869	 H	1	UNK0	0.000	
32	 H37	4.228	-3.710	12.116	 H	1	UNK0	0.000	
33	 H36	4.572	-2.936	10.570	 H	1	UNK0	0.000	
34	 H20	3.677	4.159	13.557	 H	1	UNK0	0.000	
35	 H35	6.441	-4.271	10.308	 H	1	UNK0	0.000	
36	 H01	4.696	-1.332	15.834	 H	1	UNK0	0.000	
37	 H02	6.348	2.627	16.014	 H	1	UNK0	0.000	
38	  C1	5.523	0.640	16.075	C.2	1	UNK0	0.000	
39	  C2	5.027	-0.423	15.332	C.2	1	UNK0	0.000	
40	  C3	4.954	-0.329	13.956	C.2	1	UNK0	0.000	
41	  C4	5.386	0.823	13.315	C.2	1	UNK0	0.000	
42	  C5	5.886	1.884	14.056	C.2	1	UNK0	0.000	
43	  C6	5.955	1.794	15.432	C.2	1	UNK0	0.000	
44	  O1	5.319	0.913	11.960	O.3	1	UNK0	0.000	
45	  N1	5.593	0.548	17.469	N.pl3	1	UNK0	0.000	
46	  C7	9.314	-1.321	16.866	C.2	1	UNK0	0.000	
47	  C8	10.440	-0.857	17.556	C.2	1	UNK0	0.000	
48	  C9	10.351	0.188	18.420	C.2	1	UNK0	0.000	
49	 C10	9.110	0.822	18.632	C.2	1	UNK0	0.000	
50	 C11	7.968	0.347	17.935	C.2	1	UNK0	0.000	
51	 C12	8.095	-0.733	17.045	C.2	1	UNK0	0.000	
52	 C13	6.723	0.977	18.133	C.2	1	UNK0	0.000	
53	 C14	6.671	2.057	19.037	C.2	1	UNK0	0.000	
54	 C15	5.463	2.730	19.288	C.2	1	UNK0	0.000	
55	 C16	5.441	3.769	20.166	C.2	1	UNK0	0.000	
56	 C17	6.603	4.177	20.821	C.2	1	UNK0	0.000	
57	 C18	7.789	3.551	20.602	C.2	1	UNK0	0.000	
58	 C19	7.856	2.469	19.701	C.2	1	UNK0	0.000	
59	  N2	9.013	1.848	19.478	N.pl3	1	UNK0	0.000	
60	 C20	10.562	-3.229	16.192	C.3	1	UNK0	0.000	
61	  O2	9.436	-2.368	16.009	O.3	1	UNK0	0.000	
62	 C21	6.356	3.135	13.359	C.3	1	UNK0	0.000	
63	  N3	5.348	3.554	12.375	N.4	1	UNK0	0.000	
64	 C22	4.458	4.601	12.938	C.3	1	UNK0	0.000	
65	 C23	3.857	5.271	11.677	C.3	1	UNK0	0.000	
66	 C24	5.044	5.273	10.687	C.3	1	UNK0	0.000	
67	 C25	5.988	4.164	11.189	C.3	1	UNK0	0.000	
68	 C26	4.410	-1.480	13.150	C.3	1	UNK0	0.000	
69	  N4	5.458	-1.992	12.258	N.4	1	UNK0	0.000	
70	 C27	6.656	-2.412	13.030	C.3	1	UNK0	0.000	
71	 C28	7.388	-3.369	12.056	C.3	1	UNK0	0.000	
72	 C29	6.224	-4.116	11.365	C.3	1	UNK0	0.000	
73	 C30	4.999	-3.200	11.538	C.3	1	UNK0	0.000	
@<TRIPOS>BOND
1 38 39 1
2 38 43 2
3 38 45 1
4 36 39 1
5 39 40 2
6 40 41 1
7 40 68 1
8 41 42 2
9 41 44 1
10 42 43 1
11 42 62 1
12 37 43 1
13 1 44 1
14 3 45 1
15 45 52 1
16 46 47 2
17 46 51 1
18 46 61 1
19 2 47 1
20 47 48 1
21 7 48 1
22 48 49 2
23 49 50 1
24 49 59 1
25 50 51 2
26 50 52 1
27 15 51 1
28 52 53 2
29 53 54 1
30 53 58 1
31 6 54 1
32 54 55 2
33 5 55 1
34 55 56 1
35 4 56 1
36 56 57 2
37 8 57 1
38 57 58 1
39 58 59 2
40 16 59 1
41 10 60 1
42 12 60 1
43 14 60 1
44 60 61 1
45 11 62 1
46 30 62 1
47 62 63 1
48 9 63 1
49 63 64 1
50 63 67 1
51 18 64 1
52 34 64 1
53 64 65 1
54 17 65 1
55 31 65 1
56 65 66 1
57 20 66 1
58 21 66 1
59 66 67 1
60 13 67 1
61 19 67 1
62 24 68 1
63 25 68 1
64 68 69 1
65 23 69 1
66 69 70 1
67 69 73 1
68 26 70 1
69 29 70 1
70 70 71 1
71 27 71 1
72 28 71 1
73 71 72 1
74 22 72 1
75 35 72 1
76 72 73 1
77 32 73 1
78 33 73 1
@<TRIPOS>SUBSTRUCTURE
1	UNK0	1	GROUP	1 ****	UNK
