# created with PyMOL 2.5.0
@<TRIPOS>MOLECULE
BDB50096105
55 58 1                 
SMALL
USER_CHARGES
@<TRIPOS>ATOM
1	 H05	10.836	9.880	23.275	 H	1	UNK0	0.000	
2	 H03	8.383	9.708	22.990	 H	1	UNK0	0.000	
3	 H04	11.988	8.720	25.140	 H	1	UNK0	0.000	
4	 H10	4.898	5.099	23.090	 H	1	UNK0	0.000	
5	 H07	9.122	7.122	28.172	 H	1	UNK0	0.000	
6	 H08	12.715	6.975	26.247	 H	1	UNK0	0.000	
7	 H14	9.802	1.707	19.893	 H	1	UNK0	0.000	
8	 H09	12.544	6.266	27.837	 H	1	UNK0	0.000	
9	 H02	8.214	7.222	26.449	 H	1	UNK0	0.000	
10	 H11	8.374	4.055	19.176	 H	1	UNK0	0.000	
11	 H17	5.530	-0.116	15.997	 H	1	UNK0	0.000	
12	 H18	4.528	-1.010	16.955	 H	1	UNK0	0.000	
13	 H06	10.529	6.364	28.884	 H	1	UNK0	0.000	
14	 H16	10.838	0.037	18.389	 H	1	UNK0	0.000	
15	 H01	3.790	7.193	23.501	 H	1	UNK0	0.000	
16	 H12	6.200	1.060	21.319	 H	1	UNK0	0.000	
17	 H15	9.413	-1.216	16.785	 H	1	UNK0	0.000	
18	 H13	6.992	-0.769	16.691	 H	1	UNK0	0.000	
19	  C1	5.986	7.463	23.785	C.2	1	UNK0	0.000	
20	  N1	6.674	8.322	24.566	N.pl3	1	UNK0	0.000	
21	  N2	5.870	9.065	25.207	N.2	1	UNK0	0.000	
22	  C2	4.623	8.732	24.883	C.2	1	UNK0	0.000	
23	  C3	4.636	7.699	23.967	C.2	1	UNK0	0.000	
24	  C4	8.121	8.437	24.716	C.2	1	UNK0	0.000	
25	  C5	8.795	7.812	25.740	C.2	1	UNK0	0.000	
26	  C6	10.164	7.885	25.926	C.2	1	UNK0	0.000	
27	  C7	8.873	9.193	23.816	C.2	1	UNK0	0.000	
28	  C8	10.907	8.637	25.028	C.2	1	UNK0	0.000	
29	  C9	10.254	9.287	23.980	C.2	1	UNK0	0.000	
30	 C10	10.780	7.152	27.080	C.2	1	UNK0	0.000	
31	  N3	10.096	6.859	28.118	N.pl3	1	UNK0	0.000	
32	  N4	12.145	6.760	27.052	N.pl3	1	UNK0	0.000	
33	 C11	6.483	6.405	22.852	C.2	1	UNK0	0.000	
34	  N5	5.786	5.257	22.636	N.pl3	1	UNK0	0.000	
35	  O1	7.532	6.503	22.253	O.2	1	UNK0	0.000	
36	 C12	6.329	4.299	21.771	C.2	1	UNK0	0.000	
37	  N6	7.180	4.642	20.804	N.2	1	UNK0	0.000	
38	  N7	5.981	3.037	21.946	N.2	1	UNK0	0.000	
39	 C13	7.310	2.413	20.115	C.2	1	UNK0	0.000	
40	 C14	7.685	3.753	19.965	C.2	1	UNK0	0.000	
41	 C15	6.471	2.102	21.148	C.2	1	UNK0	0.000	
42	 C16	7.001	0.708	18.237	C.2	1	UNK0	0.000	
43	 C17	7.820	1.409	19.164	C.2	1	UNK0	0.000	
44	 C18	7.607	-0.221	17.404	C.2	1	UNK0	0.000	
45	 C19	9.175	1.157	19.191	C.2	1	UNK0	0.000	
46	 C20	8.970	-0.474	17.450	C.2	1	UNK0	0.000	
47	 C21	9.764	0.221	18.346	C.2	1	UNK0	0.000	
48	  S1	5.201	0.871	17.994	S.o2	1	UNK0	0.000	
49	  O2	4.308	0.557	19.178	O.2	1	UNK0	0.000	
50	  O3	4.933	2.320	17.645	O.2	1	UNK0	0.000	
51	  N8	4.760	-0.076	16.649	N.3	1	UNK0	0.000	
52	 C22	3.376	9.371	25.417	C.3	1	UNK0	0.000	
53	  F1	2.617	8.418	26.069	 F	1	UNK0	0.000	
54	  F2	2.650	9.906	24.375	 F	1	UNK0	0.000	
55	  F3	3.716	10.373	26.301	 F	1	UNK0	0.000	
@<TRIPOS>BOND
1 19 20 1
2 19 23 2
3 19 33 1
4 20 21 1
5 20 24 1
6 21 22 2
7 22 23 1
8 22 52 1
9 15 23 1
10 24 25 2
11 24 27 1
12 9 25 1
13 25 26 1
14 26 28 2
15 26 30 1
16 2 27 1
17 27 29 2
18 3 28 1
19 28 29 1
20 1 29 1
21 30 31 2
22 30 32 1
23 5 31 1
24 13 31 1
25 6 32 1
26 8 32 1
27 33 34 1
28 33 35 2
29 4 34 1
30 34 36 1
31 36 37 2
32 36 38 1
33 37 40 1
34 38 41 2
35 39 40 2
36 39 41 1
37 39 43 1
38 10 40 1
39 16 41 1
40 42 43 2
41 42 44 1
42 42 48 1
43 43 45 1
44 18 44 1
45 44 46 2
46 7 45 1
47 45 47 2
48 17 46 1
49 46 47 1
50 14 47 1
51 48 49 2
52 48 50 2
53 48 51 1
54 11 51 1
55 12 51 1
56 52 53 1
57 52 54 1
58 52 55 1
@<TRIPOS>SUBSTRUCTURE
1	UNK0	1	GROUP	1 ****	UNK
