# created with PyMOL 2.5.0
@<TRIPOS>MOLECULE
ZINC00538264
62 66 1                 
SMALL
USER_CHARGES
@<TRIPOS>ATOM
1	 H12	9.323	-5.748	13.178	 H	1	UNK0	0.000	
2	 H15	2.560	-0.373	17.385	 H	1	UNK0	0.000	
3	 H16	4.766	-1.464	17.554	 H	1	UNK0	0.000	
4	 H05	11.822	-4.446	15.496	 H	1	UNK0	0.000	
5	 H04	11.467	-2.113	16.052	 H	1	UNK0	0.000	
6	 H03	10.716	-3.274	17.299	 H	1	UNK0	0.000	
7	 H02	11.197	-1.009	18.094	 H	1	UNK0	0.000	
8	 H01	10.726	0.939	19.507	 H	1	UNK0	0.000	
9	 H13	6.306	1.196	14.536	 H	1	UNK0	0.000	
10	 H08	5.371	-1.705	14.509	 H	1	UNK0	0.000	
11	 H11	10.939	-5.930	13.821	 H	1	UNK0	0.000	
12	 H10	5.903	-3.382	14.777	 H	1	UNK0	0.000	
13	 H21	4.846	0.529	22.306	 H	1	UNK0	0.000	
14	 H09	6.622	-2.419	13.464	 H	1	UNK0	0.000	
15	 H07	6.779	1.273	17.846	 H	1	UNK0	0.000	
16	 H06	7.855	-4.003	13.918	 H	1	UNK0	0.000	
17	 H14	4.091	2.272	14.364	 H	1	UNK0	0.000	
18	 H17	1.808	2.395	15.126	 H	1	UNK0	0.000	
19	 H20	3.359	1.256	21.652	 H	1	UNK0	0.000	
20	 H19	9.249	2.876	19.918	 H	1	UNK0	0.000	
21	 H18	1.184	1.317	16.354	 H	1	UNK0	0.000	
22	 H29	3.836	5.437	19.318	 H	1	UNK0	0.000	
23	 H24	6.896	1.011	21.273	 H	1	UNK0	0.000	
24	 H23	4.605	1.694	21.854	 H	1	UNK0	0.000	
25	 H22	4.208	2.035	23.008	 H	1	UNK0	0.000	
26	 H25	2.604	2.899	20.713	 H	1	UNK0	0.000	
27	 H28	5.316	5.732	18.433	 H	1	UNK0	0.000	
28	 H27	2.969	4.556	20.177	 H	1	UNK0	0.000	
29	 H26	3.221	4.095	21.877	 H	1	UNK0	0.000	
30	  C1	8.725	1.214	18.756	C.2	1	UNK0	0.000	
31	  C2	9.963	0.571	18.821	C.2	1	UNK0	0.000	
32	  C3	10.228	-0.514	18.035	C.2	1	UNK0	0.000	
33	  C4	9.253	-0.985	17.156	C.2	1	UNK0	0.000	
34	  C5	9.477	-2.145	16.287	C.2	1	UNK0	0.000	
35	  C6	10.690	-2.836	16.301	C.3	1	UNK0	0.000	
36	  C7	10.873	-3.911	15.481	C.2	1	UNK0	0.000	
37	  C8	9.854	-4.332	14.624	C.2	1	UNK0	0.000	
38	  C9	8.645	-3.667	14.590	C.2	1	UNK0	0.000	
39	 C10	8.434	-2.558	15.424	C.2	1	UNK0	0.000	
40	  N1	7.261	-1.907	15.395	N.pl3	1	UNK0	0.000	
41	 C11	6.996	-0.863	16.148	C.2	1	UNK0	0.000	
42	 C12	7.997	-0.341	17.082	C.2	1	UNK0	0.000	
43	 C13	7.742	0.766	17.893	C.2	1	UNK0	0.000	
44	 C14	6.223	-2.384	14.477	C.3	1	UNK0	0.000	
45	  N2	10.057	-5.438	13.798	N.pl3	1	UNK0	0.000	
46	 C15	5.674	-0.208	16.049	C.2	1	UNK0	0.000	
47	 C16	5.481	0.849	15.158	C.2	1	UNK0	0.000	
48	 C17	4.245	1.452	15.065	C.2	1	UNK0	0.000	
49	 C18	3.194	1.016	15.866	C.2	1	UNK0	0.000	
50	 C19	3.385	-0.033	16.759	C.2	1	UNK0	0.000	
51	 C20	4.617	-0.643	16.853	C.2	1	UNK0	0.000	
52	  N3	1.948	1.633	15.773	N.pl3	1	UNK0	0.000	
53	  N4	8.479	2.323	19.570	N.pl3	1	UNK0	0.000	
54	 C21	4.336	1.467	22.087	C.3	1	UNK0	0.000	
55	 C22	5.157	2.270	21.111	C.3	1	UNK0	0.000	
56	 C23	6.451	1.892	20.811	C.2	1	UNK0	0.000	
57	 C24	7.177	2.664	19.901	C.2	1	UNK0	0.000	
58	  N5	6.602	3.735	19.361	N.2	1	UNK0	0.000	
59	 C25	5.356	4.060	19.671	C.2	1	UNK0	0.000	
60	  N6	4.644	3.345	20.531	N.pl3	1	UNK0	0.000	
61	 C26	3.272	3.750	20.845	C.3	1	UNK0	0.000	
62	  N7	4.785	5.176	19.088	N.pl3	1	UNK0	0.000	
@<TRIPOS>BOND
1 30 31 1
2 30 43 2
3 30 53 1
4 8 31 1
5 31 32 2
6 7 32 1
7 32 33 1
8 33 34 2
9 33 42 1
10 34 35 1
11 34 39 1
12 5 35 1
13 6 35 1
14 35 36 1
15 4 36 1
16 36 37 2
17 37 38 1
18 37 45 1
19 16 38 1
20 38 39 2
21 39 40 1
22 40 41 1
23 40 44 1
24 41 42 2
25 41 46 1
26 42 43 1
27 15 43 1
28 10 44 1
29 12 44 1
30 14 44 1
31 1 45 1
32 11 45 1
33 46 47 2
34 46 51 1
35 9 47 1
36 47 48 1
37 17 48 1
38 48 49 2
39 49 50 1
40 49 52 1
41 2 50 1
42 50 51 2
43 3 51 1
44 18 52 1
45 21 52 1
46 20 53 1
47 53 57 1
48 13 54 1
49 19 54 1
50 25 54 1
51 54 55 1
52 24 55 1
53 55 56 1
54 55 60 1
55 23 56 1
56 56 57 2
57 57 58 1
58 58 59 2
59 59 60 1
60 59 62 1
61 60 61 1
62 26 61 1
63 28 61 1
64 29 61 1
65 22 62 1
66 27 62 1
@<TRIPOS>SUBSTRUCTURE
1	UNK0	1	GROUP	1 ****	UNK
