# created with PyMOL 2.5.0
@<TRIPOS>MOLECULE
ZINC00587692
53 55 1                 
SMALL
USER_CHARGES
@<TRIPOS>ATOM
1	 H19	10.167	0.365	19.132	 H	1	UNK0	0.000	
2	 H20	8.307	1.319	20.476	 H	1	UNK0	0.000	
3	 H06	8.802	6.604	20.550	 H	1	UNK0	0.000	
4	 H18	7.410	-0.688	16.005	 H	1	UNK0	0.000	
5	 H01	2.751	3.383	23.941	 H	1	UNK0	0.000	
6	 H22	10.828	-2.438	15.958	 H	1	UNK0	0.000	
7	 H04	0.988	2.286	24.804	 H	1	UNK0	0.000	
8	 H03	3.919	-0.971	21.894	 H	1	UNK0	0.000	
9	 H10	10.240	9.632	23.376	 H	1	UNK0	0.000	
10	 H02	1.984	-0.804	23.435	 H	1	UNK0	0.000	
11	 H08	4.750	6.779	23.399	 H	1	UNK0	0.000	
12	 H07	7.089	4.840	20.362	 H	1	UNK0	0.000	
13	 H23	9.661	-2.793	17.254	 H	1	UNK0	0.000	
14	 H09	6.467	8.552	23.572	 H	1	UNK0	0.000	
15	 H13	9.742	10.330	21.299	 H	1	UNK0	0.000	
16	 H12	9.620	8.090	24.013	 H	1	UNK0	0.000	
17	 H11	8.622	9.561	24.113	 H	1	UNK0	0.000	
18	 H14	8.731	9.350	20.210	 H	1	UNK0	0.000	
19	 H17	5.546	0.256	17.345	 H	1	UNK0	0.000	
20	 H16	6.268	0.293	21.440	 H	1	UNK0	0.000	
21	 H15	7.969	10.461	21.374	 H	1	UNK0	0.000	
22	 H05	5.844	3.481	23.135	 H	1	UNK0	0.000	
23	 H21	9.088	-2.191	15.681	 H	1	UNK0	0.000	
24	  C1	4.165	2.346	22.677	C.2	1	UNK0	0.000	
25	  C2	3.030	2.425	23.503	C.2	1	UNK0	0.000	
26	  C3	2.258	1.301	23.768	C.2	1	UNK0	0.000	
27	  C4	2.578	0.081	23.205	C.2	1	UNK0	0.000	
28	  C5	3.670	-0.008	22.339	C.2	1	UNK0	0.000	
29	  C6	4.458	1.120	22.027	C.2	1	UNK0	0.000	
30	  O1	1.183	1.367	24.604	O.3	1	UNK0	0.000	
31	  C7	4.833	4.555	21.721	C.2	1	UNK0	0.000	
32	  O2	3.910	4.700	20.924	O.2	1	UNK0	0.000	
33	  N1	5.018	3.471	22.554	N.pl3	1	UNK0	0.000	
34	  C8	7.797	7.716	22.097	C.2	1	UNK0	0.000	
35	  C9	7.920	6.652	21.189	C.2	1	UNK0	0.000	
36	 C10	6.948	5.651	21.077	C.2	1	UNK0	0.000	
37	 C11	5.800	5.681	21.870	C.2	1	UNK0	0.000	
38	 C12	5.640	6.732	22.770	C.2	1	UNK0	0.000	
39	 C13	6.622	7.733	22.870	C.2	1	UNK0	0.000	
40	 C14	9.349	9.018	23.509	C.3	1	UNK0	0.000	
41	  N2	8.769	8.714	22.205	N.pl3	1	UNK0	0.000	
42	 C15	8.805	9.781	21.209	C.3	1	UNK0	0.000	
43	  N3	5.508	0.863	21.097	N.pl3	1	UNK0	0.000	
44	 C16	5.623	1.290	19.790	C.2	1	UNK0	0.000	
45	  O3	4.819	1.994	19.189	O.2	1	UNK0	0.000	
46	 C17	6.795	0.793	19.024	C.2	1	UNK0	0.000	
47	 C18	6.558	0.258	17.749	C.2	1	UNK0	0.000	
48	 C19	7.606	-0.271	16.993	C.2	1	UNK0	0.000	
49	 C20	8.902	-0.266	17.504	C.2	1	UNK0	0.000	
50	 C21	9.147	0.322	18.750	C.2	1	UNK0	0.000	
51	 C22	8.103	0.857	19.511	C.2	1	UNK0	0.000	
52	  O4	10.003	-0.794	16.888	O.3	1	UNK0	0.000	
53	 C23	9.889	-2.132	16.418	C.3	1	UNK0	0.000	
@<TRIPOS>BOND
1 24 25 2
2 24 29 1
3 24 33 1
4 5 25 1
5 25 26 1
6 26 27 2
7 26 30 1
8 10 27 1
9 27 28 1
10 8 28 1
11 28 29 2
12 29 43 1
13 7 30 1
14 31 32 2
15 31 33 1
16 31 37 1
17 22 33 1
18 34 35 2
19 34 39 1
20 34 41 1
21 3 35 1
22 35 36 1
23 12 36 1
24 36 37 2
25 37 38 1
26 11 38 1
27 38 39 2
28 14 39 1
29 9 40 1
30 16 40 1
31 17 40 1
32 40 41 1
33 41 42 1
34 15 42 1
35 18 42 1
36 21 42 1
37 20 43 1
38 43 44 1
39 44 45 2
40 44 46 1
41 46 47 2
42 46 51 1
43 19 47 1
44 47 48 1
45 4 48 1
46 48 49 2
47 49 50 1
48 49 52 1
49 1 50 1
50 50 51 2
51 2 51 1
52 52 53 1
53 6 53 1
54 13 53 1
55 23 53 1
@<TRIPOS>SUBSTRUCTURE
1	UNK0	1	GROUP	1 ****	UNK
