# created with PyMOL 2.5.0
@<TRIPOS>MOLECULE
MOL
28 31 1                 
SMALL
USER_CHARGES
@<TRIPOS>ATOM
1	  N1	1.942	10.346	24.503	N.pl3	1	UNK0	0.000	
2	  C1	0.672	10.736	24.435	C.2	1	UNK0	0.000	
3	  N2	-0.415	10.502	25.181	N.2	1	UNK0	0.000	
4	  C2	-1.576	11.040	24.862	C.2	1	UNK0	0.000	
5	  N3	-1.710	11.813	23.807	N.2	1	UNK0	0.000	
6	  C3	-0.673	12.086	23.011	C.2	1	UNK0	0.000	
7	  N4	-0.817	12.869	21.946	N.pl3	1	UNK0	0.000	
8	  C4	0.568	11.538	23.310	C.2	1	UNK0	0.000	
9	  N5	1.766	11.613	22.735	N.2	1	UNK0	0.000	
10	  C5	2.598	10.878	23.466	C.2	1	UNK0	0.000	
11	  C6	2.566	9.573	25.586	C.3	1	UNK0	0.000	
12	  C7	2.594	8.071	25.266	C.3	1	UNK0	0.000	
13	  C8	1.326	7.375	25.756	C.3	1	UNK0	0.000	
14	  N6	0.580	8.242	26.683	N.3	1	UNK0	0.000	
15	  C9	1.128	7.668	29.005	C.3	1	UNK0	0.000	
16	 C10	0.134	7.490	27.860	C.3	1	UNK0	0.000	
17	 C11	0.022	6.008	27.491	C.3	1	UNK0	0.000	
18	  S1	4.297	10.625	23.122	S.3	1	UNK0	0.000	
19	 C12	5.000	12.050	23.839	C.2	1	UNK0	0.000	
20	 C13	4.173	12.984	24.455	C.2	1	UNK0	0.000	
21	 C14	4.706	14.148	24.995	C.2	1	UNK0	0.000	
22	  O1	4.129	15.213	25.620	O.3	1	UNK0	0.000	
23	 C15	5.048	16.270	25.319	C.3	1	UNK0	0.000	
24	  O2	6.309	15.611	25.469	O.3	1	UNK0	0.000	
25	 C16	6.066	14.387	24.908	C.2	1	UNK0	0.000	
26	 C17	6.903	13.452	24.301	C.2	1	UNK0	0.000	
27	 C18	6.370	12.288	23.762	C.2	1	UNK0	0.000	
28	 Br1	7.537	11.012	22.996	Br	1	UNK0	0.000	
@<TRIPOS>BOND
1 1 2 1
2 1 10 1
3 1 11 1
4 2 3 1
5 2 8 2
6 3 4 2
7 4 5 1
8 5 6 2
9 6 7 1
10 6 8 1
11 8 9 1
12 9 10 2
13 10 18 1
14 11 12 1
15 12 13 1
16 13 14 1
17 14 16 1
18 15 16 1
19 16 17 1
20 18 19 1
21 19 20 1
22 19 27 2
23 20 21 2
24 21 22 1
25 21 25 1
26 22 23 1
27 23 24 1
28 24 25 1
29 25 26 2
30 26 27 1
31 27 28 1
@<TRIPOS>SUBSTRUCTURE
1	UNK0	1	GROUP	1 ****	UNK
