# created with PyMOL 2.5.0
@<TRIPOS>MOLECULE
MOL
49 52 1                 
SMALL
USER_CHARGES
@<TRIPOS>ATOM
1	 H21	7.950	13.680	24.280	 H	1	UNK0	0.000	
2	 H05	3.560	9.950	25.730	 H	1	UNK0	0.000	
3	 H07	2.660	7.980	24.170	 H	1	UNK0	0.000	
4	 H19	4.910	17.180	26.000	 H	1	UNK0	0.000	
5	 H20	4.890	16.680	24.350	 H	1	UNK0	0.000	
6	 H18	3.070	12.830	24.530	 H	1	UNK0	0.000	
7	 H04	1.930	9.730	26.470	 H	1	UNK0	0.000	
8	 H03	-1.730	13.320	21.730	 H	1	UNK0	0.000	
9	 H10	1.150	9.020	26.960	 H	1	UNK0	0.000	
10	 H02	-0.040	13.120	21.360	 H	1	UNK0	0.000	
11	 H08	1.580	6.490	26.260	 H	1	UNK0	0.000	
12	 H01	-2.470	10.860	25.470	 H	1	UNK0	0.000	
13	 H09	0.670	7.160	24.870	 H	1	UNK0	0.000	
14	 H06	3.430	7.660	25.760	 H	1	UNK0	0.000	
15	 H13	1.400	6.690	29.340	 H	1	UNK0	0.000	
16	 H12	0.610	8.210	29.790	 H	1	UNK0	0.000	
17	 H11	1.960	8.220	28.630	 H	1	UNK0	0.000	
18	 H14	-0.880	7.870	28.150	 H	1	UNK0	0.000	
19	 H17	-0.210	5.430	28.350	 H	1	UNK0	0.000	
20	 H16	0.920	5.690	27.000	 H	1	UNK0	0.000	
21	 H15	-0.830	5.880	26.740	 H	1	UNK0	0.000	
22	  N1	1.920	10.380	24.500	N.pl3	1	UNK0	0.000	
23	  C1	0.650	10.770	24.430	C.2	1	UNK0	0.000	
24	  N2	-0.440	10.530	25.170	N.2	1	UNK0	0.000	
25	  C2	-1.600	11.070	24.850	C.2	1	UNK0	0.000	
26	  N3	-1.730	11.850	23.800	N.2	1	UNK0	0.000	
27	  C3	-0.690	12.130	23.010	C.2	1	UNK0	0.000	
28	  N4	-0.830	12.920	21.950	N.pl3	1	UNK0	0.000	
29	  C4	0.550	11.580	23.310	C.2	1	UNK0	0.000	
30	  N5	1.750	11.660	22.740	N.2	1	UNK0	0.000	
31	  C5	2.580	10.920	23.470	C.2	1	UNK0	0.000	
32	  C6	2.540	9.600	25.580	C.3	1	UNK0	0.000	
33	  C7	2.570	8.100	25.250	C.3	1	UNK0	0.000	
34	  C8	1.300	7.400	25.730	C.3	1	UNK0	0.000	
35	  N6	0.550	8.260	26.660	N.3	1	UNK0	0.000	
36	  C9	1.090	7.670	28.980	C.3	1	UNK0	0.000	
37	 C10	0.100	7.500	27.830	C.3	1	UNK0	0.000	
38	 C11	-0.010	6.020	27.450	C.3	1	UNK0	0.000	
39	  S1	4.280	10.670	23.130	S.3	1	UNK0	0.000	
40	 C12	4.980	12.090	23.860	C.2	1	UNK0	0.000	
41	 C13	4.150	13.020	24.480	C.2	1	UNK0	0.000	
42	 C14	4.680	14.180	25.030	C.2	1	UNK0	0.000	
43	  O1	4.100	15.240	25.660	O.3	1	UNK0	0.000	
44	 C15	5.020	16.300	25.370	C.3	1	UNK0	0.000	
45	  O2	6.280	15.640	25.520	O.3	1	UNK0	0.000	
46	 C16	6.040	14.420	24.950	C.2	1	UNK0	0.000	
47	 C17	6.880	13.490	24.340	C.2	1	UNK0	0.000	
48	 C18	6.350	12.330	23.790	C.2	1	UNK0	0.000	
49	 Br1	7.520	11.060	23.020	Br	1	UNK0	0.000	
@<TRIPOS>BOND
1 22 23 1
2 22 31 1
3 22 32 1
4 23 24 1
5 23 29 2
6 24 25 2
7 12 25 1
8 25 26 1
9 26 27 2
10 27 28 1
11 27 29 1
12 8 28 1
13 10 28 1
14 29 30 1
15 30 31 2
16 31 39 1
17 2 32 1
18 7 32 1
19 32 33 1
20 3 33 1
21 14 33 1
22 33 34 1
23 11 34 1
24 13 34 1
25 34 35 1
26 9 35 1
27 35 37 1
28 15 36 1
29 16 36 1
30 17 36 1
31 36 37 1
32 18 37 1
33 37 38 1
34 19 38 1
35 20 38 1
36 21 38 1
37 39 40 1
38 40 41 1
39 40 48 2
40 6 41 1
41 41 42 2
42 42 43 1
43 42 46 1
44 43 44 1
45 4 44 1
46 5 44 1
47 44 45 1
48 45 46 1
49 46 47 2
50 1 47 1
51 47 48 1
52 48 49 1
@<TRIPOS>SUBSTRUCTURE
1	UNK0	1	GROUP	1 ****	UNK
