# created with PyMOL 2.5.0
@<TRIPOS>MOLECULE
MOL
28 31 1                 
SMALL
USER_CHARGES
@<TRIPOS>ATOM
1	  N1	0.981	10.847	24.451	N.pl3	1	UNK0	0.000	
2	  C1	-0.522	10.954	24.536	C.2	1	UNK0	0.000	
3	  N2	-1.386	10.229	25.266	N.2	1	UNK0	0.000	
4	  C2	-2.676	10.612	25.049	C.2	1	UNK0	0.000	
5	  N3	-3.162	11.530	24.163	N.2	1	UNK0	0.000	
6	  C3	-2.279	12.275	23.453	C.2	1	UNK0	0.000	
7	  N4	-2.854	13.163	22.556	N.pl3	1	UNK0	0.000	
8	  C4	-0.889	12.062	23.598	C.2	1	UNK0	0.000	
9	  N5	0.466	12.643	22.948	N.2	1	UNK0	0.000	
10	  C5	1.555	11.895	23.520	C.2	1	UNK0	0.000	
11	  C6	1.771	9.838	25.123	C.3	1	UNK0	0.000	
12	  C7	2.028	8.652	24.210	C.3	1	UNK0	0.000	
13	  C8	0.867	7.672	24.270	C.3	1	UNK0	0.000	
14	  N6	0.741	7.146	25.619	N.3	1	UNK0	0.000	
15	  C9	2.752	5.739	25.237	C.3	1	UNK0	0.000	
16	 C10	1.323	5.805	25.754	C.3	1	UNK0	0.000	
17	 C11	0.475	4.782	25.030	C.3	1	UNK0	0.000	
18	  S1	3.241	11.944	23.115	S.3	1	UNK0	0.000	
19	 C12	3.656	13.618	23.590	C.2	1	UNK0	0.000	
20	 C13	3.016	14.668	22.909	C.2	1	UNK0	0.000	
21	 C14	3.358	15.968	23.220	C.2	1	UNK0	0.000	
22	  O1	2.854	17.222	22.607	O.3	1	UNK0	0.000	
23	 C15	3.671	18.305	23.370	C.3	1	UNK0	0.000	
24	  O2	4.632	17.695	24.417	O.3	1	UNK0	0.000	
25	 C16	4.399	16.239	24.251	C.2	1	UNK0	0.000	
26	 C17	5.050	15.217	24.891	C.2	1	UNK0	0.000	
27	 C18	4.699	13.907	24.541	C.2	1	UNK0	0.000	
28	 Br1	5.730	12.553	25.383	Br	1	UNK0	0.000	
@<TRIPOS>BOND
1 1 2 1
2 1 10 1
3 1 11 1
4 2 3 1
5 2 8 2
6 3 4 2
7 4 5 1
8 5 6 2
9 6 7 1
10 6 8 1
11 8 9 1
12 9 10 2
13 10 18 1
14 11 12 1
15 12 13 1
16 13 14 1
17 14 16 1
18 15 16 1
19 16 17 1
20 18 19 1
21 19 20 1
22 19 27 2
23 20 21 2
24 21 22 1
25 21 25 1
26 22 23 1
27 23 24 1
28 24 25 1
29 25 26 2
30 26 27 1
31 27 28 1
@<TRIPOS>SUBSTRUCTURE
1	UNK0	1	GROUP	1 ****	UNK
