# created with PyMOL 2.5.0
@<TRIPOS>MOLECULE
MOL
28 31 1                 
SMALL
USER_CHARGES
@<TRIPOS>ATOM
1	  N1	1.371	9.452	24.179	N.pl3	1	UNK0	0.000	
2	  C1	0.018	10.044	23.844	C.2	1	UNK0	0.000	
3	  N2	-1.084	10.154	24.621	N.2	1	UNK0	0.000	
4	  C2	-2.164	10.592	23.900	C.2	1	UNK0	0.000	
5	  N3	-2.200	11.071	22.635	N.2	1	UNK0	0.000	
6	  C3	-1.080	11.033	21.885	C.2	1	UNK0	0.000	
7	  N4	-1.305	11.467	20.596	N.pl3	1	UNK0	0.000	
8	  C4	0.107	10.477	22.414	C.2	1	UNK0	0.000	
9	  N5	1.588	10.115	21.879	N.2	1	UNK0	0.000	
10	  C5	2.301	9.529	22.978	C.2	1	UNK0	0.000	
11	  C6	1.748	8.899	25.457	C.3	1	UNK0	0.000	
12	  C7	1.856	7.387	25.412	C.3	1	UNK0	0.000	
13	  C8	0.523	6.744	25.198	C.3	1	UNK0	0.000	
14	  N6	-0.480	7.146	26.193	N.3	1	UNK0	0.000	
15	  C9	0.587	7.569	28.365	C.3	1	UNK0	0.000	
16	 C10	-0.235	6.604	27.538	C.3	1	UNK0	0.000	
17	 C11	0.410	5.233	27.531	C.3	1	UNK0	0.000	
18	  S1	3.913	8.904	22.970	S.3	1	UNK0	0.000	
19	 C12	4.900	10.385	23.235	C.2	1	UNK0	0.000	
20	 C13	4.352	11.454	23.981	C.2	1	UNK0	0.000	
21	 C14	5.146	12.561	24.239	C.2	1	UNK0	0.000	
22	  O1	4.765	13.802	24.971	O.3	1	UNK0	0.000	
23	 C15	6.073	14.621	24.906	C.3	1	UNK0	0.000	
24	  O2	7.206	13.901	24.129	O.3	1	UNK0	0.000	
25	 C16	6.548	12.621	23.752	C.2	1	UNK0	0.000	
26	 C17	7.086	11.563	23.036	C.2	1	UNK0	0.000	
27	 C18	6.261	10.466	22.787	C.2	1	UNK0	0.000	
28	 Br1	7.082	9.078	21.753	Br	1	UNK0	0.000	
@<TRIPOS>BOND
1 1 2 1
2 1 10 1
3 1 11 1
4 2 3 1
5 2 8 2
6 3 4 2
7 4 5 1
8 5 6 2
9 6 7 1
10 6 8 1
11 8 9 1
12 9 10 2
13 10 18 1
14 11 12 1
15 12 13 1
16 13 14 1
17 14 16 1
18 15 16 1
19 16 17 1
20 18 19 1
21 19 20 1
22 19 27 2
23 20 21 2
24 21 22 1
25 21 25 1
26 22 23 1
27 23 24 1
28 24 25 1
29 25 26 2
30 26 27 1
31 27 28 1
@<TRIPOS>SUBSTRUCTURE
1	UNK0	1	GROUP	1 ****	UNK
