# created with PyMOL 2.5.0
@<TRIPOS>MOLECULE
MOL
28 31 1                 
SMALL
USER_CHARGES
@<TRIPOS>ATOM
1	  N1	2.296	9.116	24.792	N.pl3	1	UNK0	0.000	
2	  C1	0.914	9.060	25.400	C.2	1	UNK0	0.000	
3	  N2	0.516	8.442	26.526	N.2	1	UNK0	0.000	
4	  C2	-0.815	8.617	26.751	C.2	1	UNK0	0.000	
5	  N3	-1.730	9.291	26.002	N.2	1	UNK0	0.000	
6	  C3	-1.323	9.899	24.866	C.2	1	UNK0	0.000	
7	  N4	-2.346	10.590	24.229	N.pl3	1	UNK0	0.000	
8	  C4	0.040	9.845	24.479	C.2	1	UNK0	0.000	
9	  N5	0.968	10.401	23.279	N.2	1	UNK0	0.000	
10	  C5	2.302	9.949	23.535	C.2	1	UNK0	0.000	
11	  C6	3.427	8.448	25.385	C.3	1	UNK0	0.000	
12	  C7	3.430	6.976	25.075	C.3	1	UNK0	0.000	
13	  C8	3.324	6.179	26.374	C.3	1	UNK0	0.000	
14	  N6	4.508	6.425	27.170	N.3	1	UNK0	0.000	
15	  C9	6.481	5.460	28.152	C.3	1	UNK0	0.000	
16	 C10	5.342	5.224	27.195	C.3	1	UNK0	0.000	
17	 C11	5.885	4.925	25.821	C.3	1	UNK0	0.000	
18	  S1	3.690	10.082	22.496	S.3	1	UNK0	0.000	
19	 C12	4.541	11.487	23.203	C.2	1	UNK0	0.000	
20	 C13	3.774	12.593	23.647	C.2	1	UNK0	0.000	
21	 C14	4.430	13.690	24.142	C.2	1	UNK0	0.000	
22	  O1	3.829	14.962	24.650	O.3	1	UNK0	0.000	
23	 C15	5.091	15.789	25.010	C.3	1	UNK0	0.000	
24	  O2	6.423	15.014	24.759	O.3	1	UNK0	0.000	
25	 C16	5.912	13.732	24.211	C.2	1	UNK0	0.000	
26	 C17	6.658	12.665	23.758	C.2	1	UNK0	0.000	
27	 C18	5.972	11.548	23.254	C.2	1	UNK0	0.000	
28	 Br1	7.084	10.142	22.602	Br	1	UNK0	0.000	
@<TRIPOS>BOND
1 1 2 1
2 1 10 1
3 1 11 1
4 2 3 1
5 2 8 2
6 3 4 2
7 4 5 1
8 5 6 2
9 6 7 1
10 6 8 1
11 8 9 1
12 9 10 2
13 10 18 1
14 11 12 1
15 12 13 1
16 13 14 1
17 14 16 1
18 15 16 1
19 16 17 1
20 18 19 1
21 19 20 1
22 19 27 2
23 20 21 2
24 21 22 1
25 21 25 1
26 22 23 1
27 23 24 1
28 24 25 1
29 25 26 2
30 26 27 1
31 27 28 1
@<TRIPOS>SUBSTRUCTURE
1	UNK0	1	GROUP	1 ****	UNK
