# created with PyMOL 2.5.0
@<TRIPOS>MOLECULE
MOL
28 31 1                 
SMALL
USER_CHARGES
@<TRIPOS>ATOM
1	  N1	1.613	10.362	24.256	N.pl3	1	UNK0	0.000	
2	  C1	0.250	10.901	23.889	C.2	1	UNK0	0.000	
3	  N2	-0.848	11.068	24.654	N.2	1	UNK0	0.000	
4	  C2	-1.899	11.564	23.947	C.2	1	UNK0	0.000	
5	  N3	-1.967	11.891	22.622	N.2	1	UNK0	0.000	
6	  C3	-0.859	11.734	21.868	C.2	1	UNK0	0.000	
7	  N4	-1.037	12.032	20.518	N.pl3	1	UNK0	0.000	
8	  C4	0.337	11.251	22.430	C.2	1	UNK0	0.000	
9	  N5	1.834	10.934	21.927	N.2	1	UNK0	0.000	
10	  C5	2.549	10.399	23.061	C.2	1	UNK0	0.000	
11	  C6	2.022	9.974	25.573	C.3	1	UNK0	0.000	
12	  C7	2.226	8.469	25.690	C.3	1	UNK0	0.000	
13	  C8	0.897	7.755	25.781	C.3	1	UNK0	0.000	
14	  N6	0.136	8.218	26.946	N.3	1	UNK0	0.000	
15	  C9	1.813	7.176	28.463	C.3	1	UNK0	0.000	
16	 C10	0.346	7.374	28.133	C.3	1	UNK0	0.000	
17	 C11	-0.318	6.023	27.961	C.3	1	UNK0	0.000	
18	  S1	4.224	9.976	23.142	S.3	1	UNK0	0.000	
19	 C12	4.999	11.549	23.604	C.2	1	UNK0	0.000	
20	 C13	4.192	12.644	23.984	C.2	1	UNK0	0.000	
21	 C14	4.798	13.831	24.339	C.2	1	UNK0	0.000	
22	  O1	4.141	15.084	24.788	O.3	1	UNK0	0.000	
23	 C15	5.359	16.009	25.039	C.3	1	UNK0	0.000	
24	  O2	6.716	15.308	24.741	O.3	1	UNK0	0.000	
25	 C16	6.271	13.962	24.317	C.2	1	UNK0	0.000	
26	 C17	7.067	12.896	23.958	C.2	1	UNK0	0.000	
27	 C18	6.430	11.689	23.622	C.2	1	UNK0	0.000	
28	 Br1	7.624	10.251	23.247	Br	1	UNK0	0.000	
@<TRIPOS>BOND
1 1 2 1
2 1 10 1
3 1 11 1
4 2 3 1
5 2 8 2
6 3 4 2
7 4 5 1
8 5 6 2
9 6 7 1
10 6 8 1
11 8 9 1
12 9 10 2
13 10 18 1
14 11 12 1
15 12 13 1
16 13 14 1
17 14 16 1
18 15 16 1
19 16 17 1
20 18 19 1
21 19 20 1
22 19 27 2
23 20 21 2
24 21 22 1
25 21 25 1
26 22 23 1
27 23 24 1
28 24 25 1
29 25 26 2
30 26 27 1
31 27 28 1
@<TRIPOS>SUBSTRUCTURE
1	UNK0	1	GROUP	1 ****	UNK
