# created with PyMOL 2.5.0
@<TRIPOS>MOLECULE
MOL
49 52 1                 
SMALL
USER_CHARGES
@<TRIPOS>ATOM
1	 H21	7.960	13.750	24.250	 H	1	UNK0	0.000	
2	 H05	3.440	10.140	25.780	 H	1	UNK0	0.000	
3	 H07	2.770	8.020	24.510	 H	1	UNK0	0.000	
4	 H19	4.930	17.150	26.470	 H	1	UNK0	0.000	
5	 H20	4.800	16.910	24.760	 H	1	UNK0	0.000	
6	 H18	2.970	12.930	24.630	 H	1	UNK0	0.000	
7	 H04	1.920	10.060	26.630	 H	1	UNK0	0.000	
8	 H03	-2.150	13.160	21.770	 H	1	UNK0	0.000	
9	 H10	0.790	9.110	27.190	 H	1	UNK0	0.000	
10	 H02	-0.610	12.880	21.060	 H	1	UNK0	0.000	
11	 H08	1.530	6.600	26.230	 H	1	UNK0	0.000	
12	 H01	-2.760	11.140	25.330	 H	1	UNK0	0.000	
13	 H09	0.590	7.380	24.960	 H	1	UNK0	0.000	
14	 H06	3.250	7.880	26.200	 H	1	UNK0	0.000	
15	 H13	0.860	6.760	29.870	 H	1	UNK0	0.000	
16	 H12	1.110	8.480	29.490	 H	1	UNK0	0.000	
17	 H11	2.050	7.240	28.650	 H	1	UNK0	0.000	
18	 H14	-0.930	7.800	28.420	 H	1	UNK0	0.000	
19	 H17	-0.650	5.400	28.440	 H	1	UNK0	0.000	
20	 H16	0.670	5.470	27.260	 H	1	UNK0	0.000	
21	 H15	-0.980	5.910	26.780	 H	1	UNK0	0.000	
22	  N1	1.790	10.420	24.590	N.pl3	1	UNK0	0.000	
23	  C1	0.390	10.930	24.510	C.2	1	UNK0	0.000	
24	  N2	-0.690	10.720	25.290	N.2	1	UNK0	0.000	
25	  C2	-1.830	11.320	24.800	C.2	1	UNK0	0.000	
26	  N3	-1.940	12.160	23.730	N.2	1	UNK0	0.000	
27	  C3	-0.880	12.390	22.960	C.2	1	UNK0	0.000	
28	  N4	-1.130	13.180	21.860	N.pl3	1	UNK0	0.000	
29	  C4	0.340	11.790	23.280	C.2	1	UNK0	0.000	
30	  N5	1.750	11.770	22.600	N.2	1	UNK0	0.000	
31	  C5	2.530	10.850	23.360	C.2	1	UNK0	0.000	
32	  C6	2.420	9.760	25.720	C.3	1	UNK0	0.000	
33	  C7	2.480	8.260	25.540	C.3	1	UNK0	0.000	
34	  C8	1.180	7.550	25.870	C.3	1	UNK0	0.000	
35	  N6	0.370	8.230	26.880	N.3	1	UNK0	0.000	
36	  C9	1.070	7.470	29.070	C.3	1	UNK0	0.000	
37	 C10	-0.010	7.390	28.000	C.3	1	UNK0	0.000	
38	 C11	-0.250	5.960	27.590	C.3	1	UNK0	0.000	
39	  S1	4.230	10.590	23.200	S.3	1	UNK0	0.000	
40	 C12	4.890	12.130	23.860	C.2	1	UNK0	0.000	
41	 C13	4.050	13.050	24.540	C.2	1	UNK0	0.000	
42	 C14	4.610	14.170	25.110	C.2	1	UNK0	0.000	
43	  O1	3.960	15.290	25.830	O.3	1	UNK0	0.000	
44	 C15	5.000	16.400	25.700	C.3	1	UNK0	0.000	
45	  O2	6.380	15.770	25.550	O.3	1	UNK0	0.000	
46	 C16	6.060	14.420	24.990	C.2	1	UNK0	0.000	
47	 C17	6.900	13.540	24.340	C.2	1	UNK0	0.000	
48	 C18	6.300	12.390	23.780	C.2	1	UNK0	0.000	
49	 Br1	7.520	11.180	22.950	Br	1	UNK0	0.000	
@<TRIPOS>BOND
1 22 23 1
2 22 31 1
3 22 32 1
4 23 24 1
5 23 29 2
6 24 25 2
7 12 25 1
8 25 26 1
9 26 27 2
10 27 28 1
11 27 29 1
12 8 28 1
13 10 28 1
14 29 30 1
15 30 31 2
16 31 39 1
17 2 32 1
18 7 32 1
19 32 33 1
20 3 33 1
21 14 33 1
22 33 34 1
23 11 34 1
24 13 34 1
25 34 35 1
26 9 35 1
27 35 37 1
28 15 36 1
29 16 36 1
30 17 36 1
31 36 37 1
32 18 37 1
33 37 38 1
34 19 38 1
35 20 38 1
36 21 38 1
37 39 40 1
38 40 41 1
39 40 48 2
40 6 41 1
41 41 42 2
42 42 43 1
43 42 46 1
44 43 44 1
45 4 44 1
46 5 44 1
47 44 45 1
48 45 46 1
49 46 47 2
50 1 47 1
51 47 48 1
52 48 49 1
@<TRIPOS>SUBSTRUCTURE
1	UNK0	1	GROUP	1 ****	UNK
