# created with PyMOL 2.5.0
@<TRIPOS>MOLECULE
MOL
49 52 1                 
SMALL
USER_CHARGES
@<TRIPOS>ATOM
1	 H21	8.650	12.520	22.940	 H	1	UNK0	0.000	
2	 H05	3.300	10.190	25.970	 H	1	UNK0	0.000	
3	 H07	3.020	8.000	24.740	 H	1	UNK0	0.000	
4	 H19	7.090	15.590	26.360	 H	1	UNK0	0.000	
5	 H20	6.510	16.430	24.890	 H	1	UNK0	0.000	
6	 H18	3.920	12.340	24.710	 H	1	UNK0	0.000	
7	 H04	1.610	10.100	26.500	 H	1	UNK0	0.000	
8	 H03	-1.830	12.600	21.020	 H	1	UNK0	0.000	
9	 H10	-0.840	7.710	26.120	 H	1	UNK0	0.000	
10	 H02	-0.360	12.030	20.400	 H	1	UNK0	0.000	
11	 H08	1.120	6.570	25.310	 H	1	UNK0	0.000	
12	 H01	-2.550	11.600	24.910	 H	1	UNK0	0.000	
13	 H09	0.640	8.010	24.440	 H	1	UNK0	0.000	
14	 H06	2.880	7.840	26.480	 H	1	UNK0	0.000	
15	 H13	1.230	7.960	29.630	 H	1	UNK0	0.000	
16	 H12	0.790	9.340	28.620	 H	1	UNK0	0.000	
17	 H11	2.230	8.390	28.250	 H	1	UNK0	0.000	
18	 H14	-0.630	7.330	28.250	 H	1	UNK0	0.000	
19	 H17	1.040	5.600	28.660	 H	1	UNK0	0.000	
20	 H16	1.960	6.070	27.230	 H	1	UNK0	0.000	
21	 H15	0.330	5.370	27.060	 H	1	UNK0	0.000	
22	  N1	1.910	10.400	24.490	N.pl3	1	UNK0	0.000	
23	  C1	0.560	11.030	24.220	C.2	1	UNK0	0.000	
24	  N2	-0.520	11.120	25.030	N.2	1	UNK0	0.000	
25	  C2	-1.610	11.610	24.360	C.2	1	UNK0	0.000	
26	  N3	-1.670	12.150	23.120	N.2	1	UNK0	0.000	
27	  C3	-0.570	12.130	22.340	C.2	1	UNK0	0.000	
28	  N4	-0.820	12.630	21.080	N.pl3	1	UNK0	0.000	
29	  C4	0.620	11.530	22.810	C.2	1	UNK0	0.000	
30	  N5	2.080	11.170	22.220	N.2	1	UNK0	0.000	
31	  C5	2.810	10.520	23.270	C.2	1	UNK0	0.000	
32	  C6	2.310	9.780	25.730	C.3	1	UNK0	0.000	
33	  C7	2.390	8.270	25.610	C.3	1	UNK0	0.000	
34	  C8	1.040	7.660	25.400	C.3	1	UNK0	0.000	
35	  N6	0.070	8.030	26.440	N.3	1	UNK0	0.000	
36	  C9	1.200	8.330	28.600	C.3	1	UNK0	0.000	
37	 C10	0.340	7.420	27.750	C.3	1	UNK0	0.000	
38	 C11	0.960	6.040	27.660	C.3	1	UNK0	0.000	
39	  S1	4.410	9.870	23.190	S.3	1	UNK0	0.000	
40	 C12	5.430	11.320	23.500	C.2	1	UNK0	0.000	
41	 C13	4.920	12.360	24.310	C.2	1	UNK0	0.000	
42	 C14	5.740	13.440	24.600	C.2	1	UNK0	0.000	
43	  O1	5.400	14.650	25.400	O.3	1	UNK0	0.000	
44	 C15	6.720	15.450	25.340	C.3	1	UNK0	0.000	
45	  O2	7.820	14.750	24.500	O.3	1	UNK0	0.000	
46	 C16	7.130	13.500	24.080	C.2	1	UNK0	0.000	
47	 C17	7.630	12.470	23.300	C.2	1	UNK0	0.000	
48	 C18	6.780	11.400	23.020	C.2	1	UNK0	0.000	
49	 Br1	7.550	10.050	21.900	Br	1	UNK0	0.000	
@<TRIPOS>BOND
1 22 23 1
2 22 31 1
3 22 32 1
4 23 24 1
5 23 29 2
6 24 25 2
7 12 25 1
8 25 26 1
9 26 27 2
10 27 28 1
11 27 29 1
12 8 28 1
13 10 28 1
14 29 30 1
15 30 31 2
16 31 39 1
17 2 32 1
18 7 32 1
19 32 33 1
20 3 33 1
21 14 33 1
22 33 34 1
23 11 34 1
24 13 34 1
25 34 35 1
26 9 35 1
27 35 37 1
28 15 36 1
29 16 36 1
30 17 36 1
31 36 37 1
32 18 37 1
33 37 38 1
34 19 38 1
35 20 38 1
36 21 38 1
37 39 40 1
38 40 41 1
39 40 48 2
40 6 41 1
41 41 42 2
42 42 43 1
43 42 46 1
44 43 44 1
45 4 44 1
46 5 44 1
47 44 45 1
48 45 46 1
49 46 47 2
50 1 47 1
51 47 48 1
52 48 49 1
@<TRIPOS>SUBSTRUCTURE
1	UNK0	1	GROUP	1 ****	UNK
