# created with PyMOL 2.5.0
@<TRIPOS>MOLECULE
MOL
49 52 1                 
SMALL
USER_CHARGES
@<TRIPOS>ATOM
1	 H21	6.330	16.260	26.210	 H	1	UNK0	0.000	
2	 H05	3.160	11.170	25.930	 H	1	UNK0	0.000	
3	 H07	2.550	9.910	23.720	 H	1	UNK0	0.000	
4	 H19	3.490	19.880	24.580	 H	1	UNK0	0.000	
5	 H20	4.750	19.770	23.340	 H	1	UNK0	0.000	
6	 H18	2.680	15.400	22.800	 H	1	UNK0	0.000	
7	 H04	1.700	10.440	26.610	 H	1	UNK0	0.000	
8	 H03	-3.350	13.780	22.980	 H	1	UNK0	0.000	
9	 H10	0.160	7.960	26.370	 H	1	UNK0	0.000	
10	 H02	-1.810	14.320	22.470	 H	1	UNK0	0.000	
11	 H08	1.370	7.800	24.040	 H	1	UNK0	0.000	
12	 H01	-2.980	11.020	26.300	 H	1	UNK0	0.000	
13	 H09	0.340	9.120	24.570	 H	1	UNK0	0.000	
14	 H06	3.350	9.040	25.020	 H	1	UNK0	0.000	
15	 H13	3.540	5.610	25.840	 H	1	UNK0	0.000	
16	 H12	3.780	7.320	26.230	 H	1	UNK0	0.000	
17	 H11	3.170	6.840	24.630	 H	1	UNK0	0.000	
18	 H14	1.740	6.400	27.290	 H	1	UNK0	0.000	
19	 H17	1.230	4.670	25.660	 H	1	UNK0	0.000	
20	 H16	0.830	5.870	24.430	 H	1	UNK0	0.000	
21	 H15	-0.180	5.720	25.880	 H	1	UNK0	0.000	
22	  N1	1.410	11.750	25.040	N.pl3	1	UNK0	0.000	
23	  C1	-0.090	11.870	25.150	C.2	1	UNK0	0.000	
24	  N2	-0.950	11.140	25.880	N.2	1	UNK0	0.000	
25	  C2	-2.240	11.540	25.690	C.2	1	UNK0	0.000	
26	  N3	-2.730	12.480	24.830	N.2	1	UNK0	0.000	
27	  C3	-1.850	13.230	24.120	C.2	1	UNK0	0.000	
28	  N4	-2.430	14.140	23.250	N.pl3	1	UNK0	0.000	
29	  C4	-0.460	13.000	24.240	C.2	1	UNK0	0.000	
30	  N5	0.890	13.580	23.580	N.2	1	UNK0	0.000	
31	  C5	1.980	12.810	24.120	C.2	1	UNK0	0.000	
32	  C6	2.200	10.720	25.680	C.3	1	UNK0	0.000	
33	  C7	2.430	9.550	24.740	C.3	1	UNK0	0.000	
34	  C8	1.260	8.580	24.800	C.3	1	UNK0	0.000	
35	  N6	1.150	8.030	26.140	N.3	1	UNK0	0.000	
36	  C9	3.140	6.610	25.700	C.3	1	UNK0	0.000	
37	 C10	1.720	6.680	26.240	C.3	1	UNK0	0.000	
38	 C11	0.850	5.680	25.510	C.3	1	UNK0	0.000	
39	  S1	3.660	12.850	23.690	S.3	1	UNK0	0.000	
40	 C12	4.100	14.510	24.190	C.2	1	UNK0	0.000	
41	 C13	3.460	15.580	23.540	C.2	1	UNK0	0.000	
42	 C14	3.820	16.870	23.870	C.2	1	UNK0	0.000	
43	  O1	3.320	18.140	23.290	O.3	1	UNK0	0.000	
44	 C15	4.160	19.200	24.060	C.3	1	UNK0	0.000	
45	  O2	5.130	18.560	25.080	O.3	1	UNK0	0.000	
46	 C16	4.880	17.110	24.890	C.2	1	UNK0	0.000	
47	 C17	5.530	16.070	25.500	C.2	1	UNK0	0.000	
48	 C18	5.160	14.770	25.130	C.2	1	UNK0	0.000	
49	 Br1	6.190	13.390	25.930	Br	1	UNK0	0.000	
@<TRIPOS>BOND
1 22 23 1
2 22 31 1
3 22 32 1
4 23 24 1
5 23 29 2
6 24 25 2
7 12 25 1
8 25 26 1
9 26 27 2
10 27 28 1
11 27 29 1
12 8 28 1
13 10 28 1
14 29 30 1
15 30 31 2
16 31 39 1
17 2 32 1
18 7 32 1
19 32 33 1
20 3 33 1
21 14 33 1
22 33 34 1
23 11 34 1
24 13 34 1
25 34 35 1
26 9 35 1
27 35 37 1
28 15 36 1
29 16 36 1
30 17 36 1
31 36 37 1
32 18 37 1
33 37 38 1
34 19 38 1
35 20 38 1
36 21 38 1
37 39 40 1
38 40 41 1
39 40 48 2
40 6 41 1
41 41 42 2
42 42 43 1
43 42 46 1
44 43 44 1
45 4 44 1
46 5 44 1
47 44 45 1
48 45 46 1
49 46 47 2
50 1 47 1
51 47 48 1
52 48 49 1
@<TRIPOS>SUBSTRUCTURE
1	UNK0	1	GROUP	1 ****	UNK
