# created with PyMOL 2.5.0
@<TRIPOS>MOLECULE
MOL
49 52 1                 
SMALL
USER_CHARGES
@<TRIPOS>ATOM
1	 H21	8.030	16.230	24.990	 H	1	UNK0	0.000	
2	 H05	3.210	11.150	27.210	 H	1	UNK0	0.000	
3	 H07	1.570	9.720	25.090	 H	1	UNK0	0.000	
4	 H19	5.370	18.820	21.920	 H	1	UNK0	0.000	
5	 H20	5.860	17.570	20.770	 H	1	UNK0	0.000	
6	 H18	3.210	15.150	24.020	 H	1	UNK0	0.000	
7	 H04	1.550	10.660	27.590	 H	1	UNK0	0.000	
8	 H03	-2.440	14.720	23.480	 H	1	UNK0	0.000	
9	 H10	0.760	8.940	27.580	 H	1	UNK0	0.000	
10	 H02	-0.870	15.430	23.490	 H	1	UNK0	0.000	
11	 H08	3.240	8.550	27.360	 H	1	UNK0	0.000	
12	 H01	-2.650	10.910	25.110	 H	1	UNK0	0.000	
13	 H09	2.810	7.660	25.890	 H	1	UNK0	0.000	
14	 H06	3.310	9.900	25.220	 H	1	UNK0	0.000	
15	 H13	1.800	6.700	30.140	 H	1	UNK0	0.000	
16	 H12	1.230	8.340	29.800	 H	1	UNK0	0.000	
17	 H11	2.850	7.840	29.290	 H	1	UNK0	0.000	
18	 H14	0.220	6.670	28.260	 H	1	UNK0	0.000	
19	 H17	2.020	5.030	28.240	 H	1	UNK0	0.000	
20	 H16	3.130	6.160	27.450	 H	1	UNK0	0.000	
21	 H15	1.700	5.540	26.580	 H	1	UNK0	0.000	
22	  N1	1.710	12.080	26.120	N.pl3	1	UNK0	0.000	
23	  C1	0.300	12.140	25.610	C.2	1	UNK0	0.000	
24	  N2	-0.650	11.180	25.630	N.2	1	UNK0	0.000	
25	  C2	-1.820	11.620	25.080	C.2	1	UNK0	0.000	
26	  N3	-2.100	12.820	24.510	N.2	1	UNK0	0.000	
27	  C3	-1.170	13.790	24.560	C.2	1	UNK0	0.000	
28	  N4	-1.610	14.970	24.010	N.pl3	1	UNK0	0.000	
29	  C4	0.110	13.530	25.100	C.2	1	UNK0	0.000	
30	  N5	1.480	14.340	25.360	N.2	1	UNK0	0.000	
31	  C5	2.410	13.420	25.940	C.2	1	UNK0	0.000	
32	  C6	2.240	10.910	26.780	C.3	1	UNK0	0.000	
33	  C7	2.400	9.750	25.800	C.3	1	UNK0	0.000	
34	  C8	2.490	8.450	26.570	C.3	1	UNK0	0.000	
35	  N6	1.180	8.130	27.130	N.3	1	UNK0	0.000	
36	  C9	1.820	7.510	29.400	C.3	1	UNK0	0.000	
37	 C10	1.240	7.030	28.080	C.3	1	UNK0	0.000	
38	 C11	2.070	5.870	27.550	C.3	1	UNK0	0.000	
39	  S1	4.020	13.710	26.590	S.3	1	UNK0	0.000	
40	 C12	4.870	14.810	25.420	C.2	1	UNK0	0.000	
41	 C13	4.230	15.350	24.280	C.2	1	UNK0	0.000	
42	 C14	4.930	16.180	23.420	C.2	1	UNK0	0.000	
43	  O1	4.400	16.910	22.240	O.3	1	UNK0	0.000	
44	 C15	5.630	17.760	21.820	C.3	1	UNK0	0.000	
45	  O2	6.880	17.480	22.690	O.3	1	UNK0	0.000	
46	 C16	6.350	16.510	23.680	C.2	1	UNK0	0.000	
47	 C17	6.990	15.980	24.780	C.2	1	UNK0	0.000	
48	 C18	6.250	15.160	25.650	C.2	1	UNK0	0.000	
49	 Br1	7.220	14.560	27.180	Br	1	UNK0	0.000	
@<TRIPOS>BOND
1 22 23 1
2 22 31 1
3 22 32 1
4 23 24 1
5 23 29 2
6 24 25 2
7 12 25 1
8 25 26 1
9 26 27 2
10 27 28 1
11 27 29 1
12 8 28 1
13 10 28 1
14 29 30 1
15 30 31 2
16 31 39 1
17 2 32 1
18 7 32 1
19 32 33 1
20 3 33 1
21 14 33 1
22 33 34 1
23 11 34 1
24 13 34 1
25 34 35 1
26 9 35 1
27 35 37 1
28 15 36 1
29 16 36 1
30 17 36 1
31 36 37 1
32 18 37 1
33 37 38 1
34 19 38 1
35 20 38 1
36 21 38 1
37 39 40 1
38 40 41 1
39 40 48 2
40 6 41 1
41 41 42 2
42 42 43 1
43 42 46 1
44 43 44 1
45 4 44 1
46 5 44 1
47 44 45 1
48 45 46 1
49 46 47 2
50 1 47 1
51 47 48 1
52 48 49 1
@<TRIPOS>SUBSTRUCTURE
1	UNK0	1	GROUP	1 ****	UNK
