# created with PyMOL 2.5.0
@<TRIPOS>MOLECULE
MOL
28 31 1                 
SMALL
USER_CHARGES
@<TRIPOS>ATOM
1	  N1	1.760	11.925	25.908	N.pl3	1	UNK0	0.000	
2	  C1	0.340	11.936	25.423	C.2	1	UNK0	0.000	
3	  N2	-0.581	10.950	25.476	N.2	1	UNK0	0.000	
4	  C2	-1.773	11.347	24.940	C.2	1	UNK0	0.000	
5	  N3	-2.098	12.529	24.357	N.2	1	UNK0	0.000	
6	  C3	-1.196	13.526	24.374	C.2	1	UNK0	0.000	
7	  N4	-1.680	14.683	23.814	N.pl3	1	UNK0	0.000	
8	  C4	0.101	13.311	24.895	C.2	1	UNK0	0.000	
9	  N5	1.451	14.165	25.116	N.2	1	UNK0	0.000	
10	  C5	2.418	13.282	25.694	C.2	1	UNK0	0.000	
11	  C6	2.336	10.782	26.576	C.3	1	UNK0	0.000	
12	  C7	2.512	9.611	25.612	C.3	1	UNK0	0.000	
13	  C8	2.654	8.327	26.400	C.3	1	UNK0	0.000	
14	  N6	1.364	7.978	26.990	N.3	1	UNK0	0.000	
15	  C9	2.062	7.414	29.257	C.3	1	UNK0	0.000	
16	 C10	1.473	6.896	27.955	C.3	1	UNK0	0.000	
17	 C11	2.326	5.752	27.429	C.3	1	UNK0	0.000	
18	  S1	4.030	13.628	26.309	S.3	1	UNK0	0.000	
19	 C12	4.826	14.733	25.107	C.2	1	UNK0	0.000	
20	 C13	4.150	15.236	23.970	C.2	1	UNK0	0.000	
21	 C14	4.810	16.072	23.084	C.2	1	UNK0	0.000	
22	  O1	4.238	16.767	21.903	O.3	1	UNK0	0.000	
23	 C15	5.435	17.645	21.447	C.3	1	UNK0	0.000	
24	  O2	6.708	17.415	22.298	O.3	1	UNK0	0.000	
25	 C16	6.225	16.446	23.313	C.2	1	UNK0	0.000	
26	 C17	6.900	15.953	24.409	C.2	1	UNK0	0.000	
27	 C18	6.199	15.126	25.305	C.2	1	UNK0	0.000	
28	 Br1	7.214	14.580	26.827	Br	1	UNK0	0.000	
@<TRIPOS>BOND
1 1 2 1
2 1 10 1
3 1 11 1
4 2 3 1
5 2 8 2
6 3 4 2
7 4 5 1
8 5 6 2
9 6 7 1
10 6 8 1
11 8 9 1
12 9 10 2
13 10 18 1
14 11 12 1
15 12 13 1
16 13 14 1
17 14 16 1
18 15 16 1
19 16 17 1
20 18 19 1
21 19 20 1
22 19 27 2
23 20 21 2
24 21 22 1
25 21 25 1
26 22 23 1
27 23 24 1
28 24 25 1
29 25 26 2
30 26 27 1
31 27 28 1
@<TRIPOS>SUBSTRUCTURE
1	UNK0	1	GROUP	1 ****	UNK
