# created with PyMOL 2.5.0
@<TRIPOS>MOLECULE
MOL
28 31 1                 
SMALL
USER_CHARGES
@<TRIPOS>ATOM
1	  N1	1.641	9.339	24.184	N.pl3	1	UNK0	0.000	
2	  C1	0.175	9.617	23.967	C.2	1	UNK0	0.000	
3	  N2	-0.851	9.486	24.829	N.2	1	UNK0	0.000	
4	  C2	-2.042	9.817	24.256	C.2	1	UNK0	0.000	
5	  N3	-2.304	10.239	22.974	N.2	1	UNK0	0.000	
6	  C3	-1.250	10.399	22.134	C.2	1	UNK0	0.000	
7	  N4	-1.573	10.850	20.851	N.pl3	1	UNK0	0.000	
8	  C4	0.058	10.098	22.554	C.2	1	UNK0	0.000	
9	  N5	1.546	10.105	21.914	N.2	1	UNK0	0.000	
10	  C5	2.440	9.646	22.930	C.2	1	UNK0	0.000	
11	  C6	2.204	8.933	25.449	C.3	1	UNK0	0.000	
12	  C7	2.665	7.490	25.423	C.3	1	UNK0	0.000	
13	  C8	1.499	6.532	25.385	C.3	1	UNK0	0.000	
14	  N6	0.745	6.565	26.638	N.3	1	UNK0	0.000	
15	  C9	2.545	5.334	27.792	C.3	1	UNK0	0.000	
16	 C10	1.064	5.425	27.505	C.3	1	UNK0	0.000	
17	 C11	0.578	4.116	26.895	C.3	1	UNK0	0.000	
18	  S1	4.159	9.489	22.823	S.3	1	UNK0	0.000	
19	 C12	4.750	11.131	23.223	C.2	1	UNK0	0.000	
20	 C13	3.833	12.195	23.471	C.2	1	UNK0	0.000	
21	 C14	4.331	13.426	23.836	C.2	1	UNK0	0.000	
22	  O1	3.549	14.637	24.197	O.3	1	UNK0	0.000	
23	 C15	4.669	15.636	24.596	C.3	1	UNK0	0.000	
24	  O2	6.095	15.015	24.462	O.3	1	UNK0	0.000	
25	 C16	5.783	13.642	23.987	C.2	1	UNK0	0.000	
26	 C17	6.680	12.639	23.712	C.2	1	UNK0	0.000	
27	 C18	6.153	11.398	23.335	C.2	1	UNK0	0.000	
28	 Br1	7.478	10.056	22.970	Br	1	UNK0	0.000	
@<TRIPOS>BOND
1 1 2 1
2 1 10 1
3 1 11 1
4 2 3 1
5 2 8 2
6 3 4 2
7 4 5 1
8 5 6 2
9 6 7 1
10 6 8 1
11 8 9 1
12 9 10 2
13 10 18 1
14 11 12 1
15 12 13 1
16 13 14 1
17 14 16 1
18 15 16 1
19 16 17 1
20 18 19 1
21 19 20 1
22 19 27 2
23 20 21 2
24 21 22 1
25 21 25 1
26 22 23 1
27 23 24 1
28 24 25 1
29 25 26 2
30 26 27 1
31 27 28 1
@<TRIPOS>SUBSTRUCTURE
1	UNK0	1	GROUP	1 ****	UNK
