# created with PyMOL 2.5.0
@<TRIPOS>MOLECULE
MOL
49 52 1                 
SMALL
USER_CHARGES
@<TRIPOS>ATOM
1	 H21	7.850	13.140	28.010	 H	1	UNK0	0.000	
2	 H05	3.760	11.250	26.690	 H	1	UNK0	0.000	
3	 H07	2.980	9.720	24.710	 H	1	UNK0	0.000	
4	 H19	6.480	17.470	29.820	 H	1	UNK0	0.000	
5	 H20	7.440	17.900	28.390	 H	1	UNK0	0.000	
6	 H18	3.920	15.660	26.040	 H	1	UNK0	0.000	
7	 H04	2.300	10.700	27.520	 H	1	UNK0	0.000	
8	 H03	-2.750	13.300	23.420	 H	1	UNK0	0.000	
9	 H10	1.030	9.420	27.720	 H	1	UNK0	0.000	
10	 H02	-1.280	13.890	22.790	 H	1	UNK0	0.000	
11	 H08	2.080	7.530	25.690	 H	1	UNK0	0.000	
12	 H01	-2.430	10.600	26.470	 H	1	UNK0	0.000	
13	 H09	0.930	8.800	25.370	 H	1	UNK0	0.000	
14	 H06	3.840	9.060	26.080	 H	1	UNK0	0.000	
15	 H13	3.940	7.680	29.270	 H	1	UNK0	0.000	
16	 H12	3.580	9.190	28.420	 H	1	UNK0	0.000	
17	 H11	4.020	7.710	27.520	 H	1	UNK0	0.000	
18	 H14	1.590	7.870	29.330	 H	1	UNK0	0.000	
19	 H17	0.900	5.880	28.040	 H	1	UNK0	0.000	
20	 H16	2.470	5.650	28.820	 H	1	UNK0	0.000	
21	 H15	2.400	5.980	27.090	 H	1	UNK0	0.000	
22	  N1	2.000	11.840	25.850	N.pl3	1	UNK0	0.000	
23	  C1	0.490	11.800	25.760	C.2	1	UNK0	0.000	
24	  N2	-0.370	10.970	26.370	N.2	1	UNK0	0.000	
25	  C2	-1.660	11.230	26.010	C.2	1	UNK0	0.000	
26	  N3	-2.120	12.140	25.110	N.2	1	UNK0	0.000	
27	  C3	-1.260	12.980	24.530	C.2	1	UNK0	0.000	
28	  N4	-1.870	13.800	23.600	N.pl3	1	UNK0	0.000	
29	  C4	0.120	12.920	24.830	C.2	1	UNK0	0.000	
30	  N5	1.470	13.690	24.410	N.2	1	UNK0	0.000	
31	  C5	2.560	13.030	25.080	C.2	1	UNK0	0.000	
32	  C6	2.760	10.830	26.540	C.3	1	UNK0	0.000	
33	  C7	2.900	9.510	25.790	C.3	1	UNK0	0.000	
34	  C8	1.760	8.530	26.020	C.3	1	UNK0	0.000	
35	  N6	1.230	8.470	27.390	N.3	1	UNK0	0.000	
36	  C9	3.480	8.100	28.380	C.3	1	UNK0	0.000	
37	 C10	2.030	7.700	28.340	C.3	1	UNK0	0.000	
38	 C11	1.940	6.220	28.050	C.3	1	UNK0	0.000	
39	  S1	4.220	13.200	24.620	S.3	1	UNK0	0.000	
40	 C12	5.020	13.780	26.090	C.2	1	UNK0	0.000	
41	 C13	4.720	15.090	26.510	C.2	1	UNK0	0.000	
42	 C14	5.530	15.680	27.450	C.2	1	UNK0	0.000	
43	  O1	5.490	17.090	27.930	O.3	1	UNK0	0.000	
44	 C15	6.760	17.160	28.820	C.3	1	UNK0	0.000	
45	  O2	7.520	15.810	28.900	O.3	1	UNK0	0.000	
46	 C16	6.700	14.940	28.010	C.2	1	UNK0	0.000	
47	 C17	6.980	13.660	27.620	C.2	1	UNK0	0.000	
48	 C18	6.140	13.080	26.640	C.2	1	UNK0	0.000	
49	 Br1	6.680	11.370	26.010	Br	1	UNK0	0.000	
@<TRIPOS>BOND
1 22 23 1
2 22 31 1
3 22 32 1
4 23 24 1
5 23 29 2
6 24 25 2
7 12 25 1
8 25 26 1
9 26 27 2
10 27 28 1
11 27 29 1
12 8 28 1
13 10 28 1
14 29 30 1
15 30 31 2
16 31 39 1
17 2 32 1
18 7 32 1
19 32 33 1
20 3 33 1
21 14 33 1
22 33 34 1
23 11 34 1
24 13 34 1
25 34 35 1
26 9 35 1
27 35 37 1
28 15 36 1
29 16 36 1
30 17 36 1
31 36 37 1
32 18 37 1
33 37 38 1
34 19 38 1
35 20 38 1
36 21 38 1
37 39 40 1
38 40 41 1
39 40 48 2
40 6 41 1
41 41 42 2
42 42 43 1
43 42 46 1
44 43 44 1
45 4 44 1
46 5 44 1
47 44 45 1
48 45 46 1
49 46 47 2
50 1 47 1
51 47 48 1
52 48 49 1
@<TRIPOS>SUBSTRUCTURE
1	UNK0	1	GROUP	1 ****	UNK
