# created with PyMOL 2.5.0
@<TRIPOS>MOLECULE
MOL
28 31 1                 
SMALL
USER_CHARGES
@<TRIPOS>ATOM
1	  N1	3.722	10.488	24.818	N.pl3	1	UNK0	0.000	
2	  C1	2.330	10.917	24.434	C.2	1	UNK0	0.000	
3	  N2	1.161	10.527	25.003	N.2	1	UNK0	0.000	
4	  C2	0.105	11.129	24.419	C.2	1	UNK0	0.000	
5	  N3	0.081	12.082	23.439	N.2	1	UNK0	0.000	
6	  C3	1.259	12.452	22.890	C.2	1	UNK0	0.000	
7	  N4	1.065	13.412	21.904	N.pl3	1	UNK0	0.000	
8	  C4	2.472	11.878	23.312	C.2	1	UNK0	0.000	
9	  N5	4.055	12.007	22.982	N.2	1	UNK0	0.000	
10	  C5	4.759	11.187	23.925	C.2	1	UNK0	0.000	
11	  C6	3.910	9.604	25.907	C.3	1	UNK0	0.000	
12	  C7	3.770	8.124	25.510	C.3	1	UNK0	0.000	
13	  C8	2.355	7.626	25.314	C.3	1	UNK0	0.000	
14	  N6	1.599	7.841	26.541	N.3	1	UNK0	0.000	
15	  C9	-0.646	7.654	27.382	C.3	1	UNK0	0.000	
16	 C10	0.411	6.990	26.542	C.3	1	UNK0	0.000	
17	 C11	0.747	5.634	27.161	C.3	1	UNK0	0.000	
18	  S1	6.496	11.357	24.223	S.3	1	UNK0	0.000	
19	 C12	6.290	12.499	25.586	C.2	1	UNK0	0.000	
20	 C13	6.365	11.916	26.871	C.2	1	UNK0	0.000	
21	 C14	6.046	12.684	27.966	C.2	1	UNK0	0.000	
22	  O1	5.943	12.225	29.368	O.3	1	UNK0	0.000	
23	 C15	5.432	13.502	30.091	C.3	1	UNK0	0.000	
24	  O2	5.234	14.703	29.113	O.3	1	UNK0	0.000	
25	 C16	5.639	14.093	27.807	C.2	1	UNK0	0.000	
26	 C17	5.593	14.675	26.563	C.2	1	UNK0	0.000	
27	 C18	5.933	13.878	25.458	C.2	1	UNK0	0.000	
28	 Br1	5.829	14.773	23.782	Br	1	UNK0	0.000	
@<TRIPOS>BOND
1 1 2 1
2 1 10 1
3 1 11 1
4 2 3 1
5 2 8 2
6 3 4 2
7 4 5 1
8 5 6 2
9 6 7 1
10 6 8 1
11 8 9 1
12 9 10 2
13 10 18 1
14 11 12 1
15 12 13 1
16 13 14 1
17 14 16 1
18 15 16 1
19 16 17 1
20 18 19 1
21 19 20 1
22 19 27 2
23 20 21 2
24 21 22 1
25 21 25 1
26 22 23 1
27 23 24 1
28 24 25 1
29 25 26 2
30 26 27 1
31 27 28 1
@<TRIPOS>SUBSTRUCTURE
1	UNK0	1	GROUP	1 ****	UNK
