# created with PyMOL 2.5.0
@<TRIPOS>MOLECULE
MOL
49 52 1                 
SMALL
USER_CHARGES
@<TRIPOS>ATOM
1	 H21	7.660	13.360	24.290	 H	1	UNK0	0.000	
2	 H05	4.100	9.670	25.390	 H	1	UNK0	0.000	
3	 H07	2.300	7.550	24.730	 H	1	UNK0	0.000	
4	 H19	5.020	16.800	26.510	 H	1	UNK0	0.000	
5	 H20	5.150	17.430	24.850	 H	1	UNK0	0.000	
6	 H18	2.620	13.420	23.940	 H	1	UNK0	0.000	
7	 H04	3.060	9.430	26.820	 H	1	UNK0	0.000	
8	 H03	-3.290	11.570	25.110	 H	1	UNK0	0.000	
9	 H10	3.840	7.390	28.500	 H	1	UNK0	0.000	
10	 H02	-2.150	12.540	24.390	 H	1	UNK0	0.000	
11	 H08	2.780	5.910	26.490	 H	1	UNK0	0.000	
12	 H01	-1.540	9.080	27.870	 H	1	UNK0	0.000	
13	 H09	2.070	7.340	27.240	 H	1	UNK0	0.000	
14	 H06	4.040	7.470	24.920	 H	1	UNK0	0.000	
15	 H13	6.640	5.220	28.640	 H	1	UNK0	0.000	
16	 H12	5.640	6.360	29.570	 H	1	UNK0	0.000	
17	 H11	6.690	6.950	28.260	 H	1	UNK0	0.000	
18	 H14	4.280	5.110	27.920	 H	1	UNK0	0.000	
19	 H17	6.110	4.730	26.270	 H	1	UNK0	0.000	
20	 H16	6.100	6.450	25.850	 H	1	UNK0	0.000	
21	 H15	4.690	5.440	25.480	 H	1	UNK0	0.000	
22	  N1	2.070	9.950	25.120	N.pl3	1	UNK0	0.000	
23	  C1	0.670	9.940	25.690	C.2	1	UNK0	0.000	
24	  N2	0.220	9.330	26.800	N.2	1	UNK0	0.000	
25	  C2	-1.110	9.550	26.990	C.2	1	UNK0	0.000	
26	  N3	-1.980	10.260	26.220	N.2	1	UNK0	0.000	
27	  C3	-1.520	10.860	25.100	C.2	1	UNK0	0.000	
28	  N4	-2.500	11.590	24.440	N.pl3	1	UNK0	0.000	
29	  C4	-0.150	10.760	24.750	C.2	1	UNK0	0.000	
30	  N5	0.830	11.290	23.580	N.2	1	UNK0	0.000	
31	  C5	2.140	10.790	23.870	C.2	1	UNK0	0.000	
32	  C6	3.160	9.240	25.740	C.3	1	UNK0	0.000	
33	  C7	3.120	7.770	25.420	C.3	1	UNK0	0.000	
34	  C8	2.950	6.970	26.710	C.3	1	UNK0	0.000	
35	  N6	4.120	7.170	27.540	N.3	1	UNK0	0.000	
36	  C9	6.030	6.130	28.570	C.3	1	UNK0	0.000	
37	 C10	4.910	5.940	27.580	C.3	1	UNK0	0.000	
38	 C11	5.480	5.630	26.220	C.3	1	UNK0	0.000	
39	  S1	3.560	10.880	22.870	S.3	1	UNK0	0.000	
40	 C12	4.440	12.250	23.610	C.2	1	UNK0	0.000	
41	 C13	3.700	13.380	24.040	C.2	1	UNK0	0.000	
42	 C14	4.380	14.450	24.560	C.2	1	UNK0	0.000	
43	  O1	3.810	15.740	25.060	O.3	1	UNK0	0.000	
44	 C15	5.090	16.520	25.460	C.3	1	UNK0	0.000	
45	  O2	6.400	15.700	25.240	O.3	1	UNK0	0.000	
46	 C16	5.860	14.440	24.670	C.2	1	UNK0	0.000	
47	 C17	6.580	13.350	24.230	C.2	1	UNK0	0.000	
48	 C18	5.870	12.260	23.700	C.2	1	UNK0	0.000	
49	 Br1	6.950	10.820	23.070	Br	1	UNK0	0.000	
@<TRIPOS>BOND
1 22 23 1
2 22 31 1
3 22 32 1
4 23 24 1
5 23 29 2
6 24 25 2
7 12 25 1
8 25 26 1
9 26 27 2
10 27 28 1
11 27 29 1
12 8 28 1
13 10 28 1
14 29 30 1
15 30 31 2
16 31 39 1
17 2 32 1
18 7 32 1
19 32 33 1
20 3 33 1
21 14 33 1
22 33 34 1
23 11 34 1
24 13 34 1
25 34 35 1
26 9 35 1
27 35 37 1
28 15 36 1
29 16 36 1
30 17 36 1
31 36 37 1
32 18 37 1
33 37 38 1
34 19 38 1
35 20 38 1
36 21 38 1
37 39 40 1
38 40 41 1
39 40 48 2
40 6 41 1
41 41 42 2
42 42 43 1
43 42 46 1
44 43 44 1
45 4 44 1
46 5 44 1
47 44 45 1
48 45 46 1
49 46 47 2
50 1 47 1
51 47 48 1
52 48 49 1
@<TRIPOS>SUBSTRUCTURE
1	UNK0	1	GROUP	1 ****	UNK
