# created with PyMOL 2.5.0
@<TRIPOS>MOLECULE
MOL
49 52 1                 
SMALL
USER_CHARGES
@<TRIPOS>ATOM
1	 H21	8.260	12.980	24.120	 H	1	UNK0	0.000	
2	 H05	3.050	10.390	26.620	 H	1	UNK0	0.000	
3	 H07	2.400	8.250	25.390	 H	1	UNK0	0.000	
4	 H19	6.290	16.280	27.110	 H	1	UNK0	0.000	
5	 H20	5.920	16.970	25.510	 H	1	UNK0	0.000	
6	 H18	3.320	12.960	25.190	 H	1	UNK0	0.000	
7	 H04	1.420	10.430	27.310	 H	1	UNK0	0.000	
8	 H03	-2.350	13.390	22.370	 H	1	UNK0	0.000	
9	 H10	-0.230	9.430	27.740	 H	1	UNK0	0.000	
10	 H02	-1.150	12.600	21.540	 H	1	UNK0	0.000	
11	 H08	0.540	6.950	26.300	 H	1	UNK0	0.000	
12	 H01	-2.800	12.080	26.180	 H	1	UNK0	0.000	
13	 H09	-0.000	8.440	25.580	 H	1	UNK0	0.000	
14	 H06	2.590	8.110	27.130	 H	1	UNK0	0.000	
15	 H13	1.650	8.200	30.530	 H	1	UNK0	0.000	
16	 H12	0.900	9.630	29.810	 H	1	UNK0	0.000	
17	 H11	2.240	8.830	28.970	 H	1	UNK0	0.000	
18	 H14	-0.530	7.680	29.550	 H	1	UNK0	0.000	
19	 H17	0.160	5.750	28.190	 H	1	UNK0	0.000	
20	 H16	1.180	5.950	29.620	 H	1	UNK0	0.000	
21	 H15	1.800	6.420	28.040	 H	1	UNK0	0.000	
22	  N1	1.540	10.730	25.270	N.pl3	1	UNK0	0.000	
23	  C1	0.190	11.380	25.140	C.2	1	UNK0	0.000	
24	  N2	-0.830	11.400	26.030	N.2	1	UNK0	0.000	
25	  C2	-1.920	12.080	25.540	C.2	1	UNK0	0.000	
26	  N3	-2.050	12.730	24.350	N.2	1	UNK0	0.000	
27	  C3	-1.030	12.700	23.470	C.2	1	UNK0	0.000	
28	  N4	-1.340	13.270	22.270	N.pl3	1	UNK0	0.000	
29	  C4	0.180	12.030	23.800	C.2	1	UNK0	0.000	
30	  N5	1.610	11.750	23.100	N.2	1	UNK0	0.000	
31	  C5	2.370	10.970	24.020	C.2	1	UNK0	0.000	
32	  C6	2.020	10.060	26.480	C.3	1	UNK0	0.000	
33	  C7	1.980	8.560	26.340	C.3	1	UNK0	0.000	
34	  C8	0.550	8.030	26.430	C.3	1	UNK0	0.000	
35	  N6	-0.150	8.420	27.640	N.3	1	UNK0	0.000	
36	  C9	1.330	8.670	29.590	C.3	1	UNK0	0.000	
37	 C10	0.340	7.760	28.890	C.3	1	UNK0	0.000	
38	 C11	0.900	6.400	28.660	C.3	1	UNK0	0.000	
39	  S1	4.000	10.380	23.860	S.3	1	UNK0	0.000	
40	 C12	4.980	11.830	24.290	C.2	1	UNK0	0.000	
41	 C13	4.380	12.920	24.950	C.2	1	UNK0	0.000	
42	 C14	5.160	14.000	25.310	C.2	1	UNK0	0.000	
43	  O1	4.730	15.240	26.010	O.3	1	UNK0	0.000	
44	 C15	6.060	16.040	26.070	C.3	1	UNK0	0.000	
45	  O2	7.260	15.270	25.450	O.3	1	UNK0	0.000	
46	 C16	6.610	14.010	24.990	C.2	1	UNK0	0.000	
47	 C17	7.200	12.950	24.340	C.2	1	UNK0	0.000	
48	 C18	6.380	11.860	24.000	C.2	1	UNK0	0.000	
49	 Br1	7.290	10.430	23.130	Br	1	UNK0	0.000	
@<TRIPOS>BOND
1 22 23 1
2 22 31 1
3 22 32 1
4 23 24 1
5 23 29 2
6 24 25 2
7 12 25 1
8 25 26 1
9 26 27 2
10 27 28 1
11 27 29 1
12 8 28 1
13 10 28 1
14 29 30 1
15 30 31 2
16 31 39 1
17 2 32 1
18 7 32 1
19 32 33 1
20 3 33 1
21 14 33 1
22 33 34 1
23 11 34 1
24 13 34 1
25 34 35 1
26 9 35 1
27 35 37 1
28 15 36 1
29 16 36 1
30 17 36 1
31 36 37 1
32 18 37 1
33 37 38 1
34 19 38 1
35 20 38 1
36 21 38 1
37 39 40 1
38 40 41 1
39 40 48 2
40 6 41 1
41 41 42 2
42 42 43 1
43 42 46 1
44 43 44 1
45 4 44 1
46 5 44 1
47 44 45 1
48 45 46 1
49 46 47 2
50 1 47 1
51 47 48 1
52 48 49 1
@<TRIPOS>SUBSTRUCTURE
1	UNK0	1	GROUP	1 ****	UNK
