# created with PyMOL 2.5.0
@<TRIPOS>MOLECULE
MOL
49 52 1                 
SMALL
USER_CHARGES
@<TRIPOS>ATOM
1	 H21	8.040	14.050	24.370	 H	1	UNK0	0.000	
2	 H05	3.380	11.010	26.560	 H	1	UNK0	0.000	
3	 H07	3.620	8.730	27.320	 H	1	UNK0	0.000	
4	 H19	4.940	17.300	26.160	 H	1	UNK0	0.000	
5	 H20	4.960	17.790	24.450	 H	1	UNK0	0.000	
6	 H18	3.040	13.360	24.190	 H	1	UNK0	0.000	
7	 H04	1.800	10.560	27.220	 H	1	UNK0	0.000	
8	 H03	-2.390	11.810	21.730	 H	1	UNK0	0.000	
9	 H10	1.320	8.940	28.280	 H	1	UNK0	0.000	
10	 H02	-0.750	11.730	21.220	 H	1	UNK0	0.000	
11	 H08	2.110	6.930	26.320	 H	1	UNK0	0.000	
12	 H01	-2.600	11.200	26.060	 H	1	UNK0	0.000	
13	 H09	1.080	8.220	25.720	 H	1	UNK0	0.000	
14	 H06	3.540	8.670	25.560	 H	1	UNK0	0.000	
15	 H13	3.300	7.810	29.330	 H	1	UNK0	0.000	
16	 H12	3.450	6.610	28.020	 H	1	UNK0	0.000	
17	 H11	3.130	6.080	29.680	 H	1	UNK0	0.000	
18	 H14	0.930	7.160	29.670	 H	1	UNK0	0.000	
19	 H17	-0.180	5.700	27.980	 H	1	UNK0	0.000	
20	 H16	1.040	4.850	28.940	 H	1	UNK0	0.000	
21	 H15	1.400	5.320	27.280	 H	1	UNK0	0.000	
22	  N1	1.910	10.690	25.170	N.pl3	1	UNK0	0.000	
23	  C1	0.440	10.980	25.000	C.2	1	UNK0	0.000	
24	  N2	-0.550	10.910	25.910	N.2	1	UNK0	0.000	
25	  C2	-1.760	11.230	25.370	C.2	1	UNK0	0.000	
26	  N3	-2.070	11.590	24.080	N.2	1	UNK0	0.000	
27	  C3	-1.050	11.690	23.190	C.2	1	UNK0	0.000	
28	  N4	-1.420	12.080	21.900	N.pl3	1	UNK0	0.000	
29	  C4	0.270	11.390	23.570	C.2	1	UNK0	0.000	
30	  N5	1.730	11.340	22.870	N.2	1	UNK0	0.000	
31	  C5	2.660	10.920	23.870	C.2	1	UNK0	0.000	
32	  C6	2.520	10.340	26.430	C.3	1	UNK0	0.000	
33	  C7	2.960	8.890	26.460	C.3	1	UNK0	0.000	
34	  C8	1.780	7.950	26.520	C.3	1	UNK0	0.000	
35	  N6	1.080	8.060	27.800	N.3	1	UNK0	0.000	
36	  C9	2.910	6.860	28.940	C.3	1	UNK0	0.000	
37	 C10	1.420	6.960	28.710	C.3	1	UNK0	0.000	
38	 C11	0.890	5.630	28.190	C.3	1	UNK0	0.000	
39	  S1	4.370	10.730	23.700	S.3	1	UNK0	0.000	
40	 C12	5.000	12.380	23.990	C.2	1	UNK0	0.000	
41	 C13	4.110	13.470	24.220	C.2	1	UNK0	0.000	
42	 C14	4.640	14.710	24.500	C.2	1	UNK0	0.000	
43	  O1	3.890	15.950	24.830	O.3	1	UNK0	0.000	
44	 C15	5.040	16.950	25.130	C.3	1	UNK0	0.000	
45	  O2	6.450	16.300	24.970	O.3	1	UNK0	0.000	
46	 C16	6.100	14.910	24.580	C.2	1	UNK0	0.000	
47	 C17	6.970	13.880	24.320	C.2	1	UNK0	0.000	
48	 C18	6.410	12.630	24.030	C.2	1	UNK0	0.000	
49	 Br1	7.700	11.250	23.680	Br	1	UNK0	0.000	
@<TRIPOS>BOND
1 22 23 1
2 22 31 1
3 22 32 1
4 23 24 1
5 23 29 2
6 24 25 2
7 12 25 1
8 25 26 1
9 26 27 2
10 27 28 1
11 27 29 1
12 8 28 1
13 10 28 1
14 29 30 1
15 30 31 2
16 31 39 1
17 2 32 1
18 7 32 1
19 32 33 1
20 3 33 1
21 14 33 1
22 33 34 1
23 11 34 1
24 13 34 1
25 34 35 1
26 9 35 1
27 35 37 1
28 15 36 1
29 16 36 1
30 17 36 1
31 36 37 1
32 18 37 1
33 37 38 1
34 19 38 1
35 20 38 1
36 21 38 1
37 39 40 1
38 40 41 1
39 40 48 2
40 6 41 1
41 41 42 2
42 42 43 1
43 42 46 1
44 43 44 1
45 4 44 1
46 5 44 1
47 44 45 1
48 45 46 1
49 46 47 2
50 1 47 1
51 47 48 1
52 48 49 1
@<TRIPOS>SUBSTRUCTURE
1	UNK0	1	GROUP	1 ****	UNK
