# created with PyMOL 2.5.0
@<TRIPOS>MOLECULE
MOL
49 52 1                 
SMALL
USER_CHARGES
@<TRIPOS>ATOM
1	 H21	8.810	14.120	24.720	 H	1	UNK0	0.000	
2	 H05	3.720	11.630	26.760	 H	1	UNK0	0.000	
3	 H07	3.490	9.210	25.880	 H	1	UNK0	0.000	
4	 H19	6.060	17.480	26.840	 H	1	UNK0	0.000	
5	 H20	5.910	18.000	25.130	 H	1	UNK0	0.000	
6	 H18	3.780	13.700	24.940	 H	1	UNK0	0.000	
7	 H04	2.060	11.500	27.340	 H	1	UNK0	0.000	
8	 H03	0.090	12.370	21.090	 H	1	UNK0	0.000	
9	 H10	-0.050	9.300	27.900	 H	1	UNK0	0.000	
10	 H02	-1.490	12.830	21.470	 H	1	UNK0	0.000	
11	 H08	1.830	7.800	26.970	 H	1	UNK0	0.000	
12	 H01	-2.120	12.790	25.680	 H	1	UNK0	0.000	
13	 H09	1.060	9.080	26.050	 H	1	UNK0	0.000	
14	 H06	3.650	9.420	27.610	 H	1	UNK0	0.000	
15	 H13	2.820	7.850	30.530	 H	1	UNK0	0.000	
16	 H12	3.200	9.340	29.670	 H	1	UNK0	0.000	
17	 H11	3.170	7.780	28.810	 H	1	UNK0	0.000	
18	 H14	0.770	9.090	30.150	 H	1	UNK0	0.000	
19	 H17	0.680	6.650	30.130	 H	1	UNK0	0.000	
20	 H16	0.980	6.610	28.390	 H	1	UNK0	0.000	
21	 H15	-0.520	7.310	29.020	 H	1	UNK0	0.000	
22	  N1	2.310	11.450	25.310	N.pl3	1	UNK0	0.000	
23	  C1	0.930	11.970	24.980	C.2	1	UNK0	0.000	
24	  N2	-0.140	12.150	25.780	N.2	1	UNK0	0.000	
25	  C2	-1.220	12.620	25.100	C.2	1	UNK0	0.000	
26	  N3	-1.340	12.910	23.770	N.2	1	UNK0	0.000	
27	  C3	-0.260	12.740	22.980	C.2	1	UNK0	0.000	
28	  N4	-0.490	13.000	21.630	N.pl3	1	UNK0	0.000	
29	  C4	0.960	12.280	23.510	C.2	1	UNK0	0.000	
30	  N5	2.440	11.960	22.960	N.2	1	UNK0	0.000	
31	  C5	3.200	11.460	24.080	C.2	1	UNK0	0.000	
32	  C6	2.770	11.100	26.620	C.3	1	UNK0	0.000	
33	  C7	2.990	9.600	26.770	C.3	1	UNK0	0.000	
34	  C8	1.670	8.880	26.930	C.3	1	UNK0	0.000	
35	  N6	0.950	9.370	28.110	N.3	1	UNK0	0.000	
36	  C9	2.690	8.380	29.590	C.3	1	UNK0	0.000	
37	 C10	1.210	8.560	29.310	C.3	1	UNK0	0.000	
38	 C11	0.550	7.200	29.200	C.3	1	UNK0	0.000	
39	  S1	4.880	11.050	24.110	S.3	1	UNK0	0.000	
40	 C12	5.660	12.640	24.500	C.2	1	UNK0	0.000	
41	 C13	4.860	13.740	24.880	C.2	1	UNK0	0.000	
42	 C14	5.470	14.940	25.180	C.2	1	UNK0	0.000	
43	  O1	4.820	16.200	25.620	O.3	1	UNK0	0.000	
44	 C15	6.040	17.140	25.800	C.3	1	UNK0	0.000	
45	  O2	7.390	16.440	25.470	O.3	1	UNK0	0.000	
46	 C16	6.940	15.080	25.100	C.2	1	UNK0	0.000	
47	 C17	7.730	14.010	24.740	C.2	1	UNK0	0.000	
48	 C18	7.090	12.790	24.460	C.2	1	UNK0	0.000	
49	 Br1	8.280	11.350	24.080	Br	1	UNK0	0.000	
@<TRIPOS>BOND
1 22 23 1
2 22 31 1
3 22 32 1
4 23 24 1
5 23 29 2
6 24 25 2
7 12 25 1
8 25 26 1
9 26 27 2
10 27 28 1
11 27 29 1
12 8 28 1
13 10 28 1
14 29 30 1
15 30 31 2
16 31 39 1
17 2 32 1
18 7 32 1
19 32 33 1
20 3 33 1
21 14 33 1
22 33 34 1
23 11 34 1
24 13 34 1
25 34 35 1
26 9 35 1
27 35 37 1
28 15 36 1
29 16 36 1
30 17 36 1
31 36 37 1
32 18 37 1
33 37 38 1
34 19 38 1
35 20 38 1
36 21 38 1
37 39 40 1
38 40 41 1
39 40 48 2
40 6 41 1
41 41 42 2
42 42 43 1
43 42 46 1
44 43 44 1
45 4 44 1
46 5 44 1
47 44 45 1
48 45 46 1
49 46 47 2
50 1 47 1
51 47 48 1
52 48 49 1
@<TRIPOS>SUBSTRUCTURE
1	UNK0	1	GROUP	1 ****	UNK
