# created with PyMOL 2.5.0
@<TRIPOS>MOLECULE
MOL
28 31 1                 
SMALL
USER_CHARGES
@<TRIPOS>ATOM
1	  N1	1.679	9.628	25.030	N.pl3	1	UNK0	0.000	
2	  C1	0.346	10.309	24.875	C.2	1	UNK0	0.000	
3	  N2	-0.701	10.327	25.732	N.2	1	UNK0	0.000	
4	  C2	-1.761	11.042	25.226	C.2	1	UNK0	0.000	
5	  N3	-1.840	11.724	24.049	N.2	1	UNK0	0.000	
6	  C3	-0.793	11.695	23.202	C.2	1	UNK0	0.000	
7	  N4	-1.053	12.302	22.007	N.pl3	1	UNK0	0.000	
8	  C4	0.392	10.993	23.552	C.2	1	UNK0	0.000	
9	  N5	1.838	10.701	22.891	N.2	1	UNK0	0.000	
10	  C5	2.553	9.883	23.814	C.2	1	UNK0	0.000	
11	  C6	2.106	8.918	26.237	C.3	1	UNK0	0.000	
12	  C7	2.041	7.423	26.057	C.3	1	UNK0	0.000	
13	  C8	0.599	6.921	26.088	C.3	1	UNK0	0.000	
14	  N6	-0.132	7.294	27.285	N.3	1	UNK0	0.000	
15	  C9	1.289	7.465	29.287	C.3	1	UNK0	0.000	
16	 C10	0.305	6.593	28.533	C.3	1	UNK0	0.000	
17	 C11	0.845	5.228	28.285	C.3	1	UNK0	0.000	
18	  S1	4.175	9.263	23.690	S.3	1	UNK0	0.000	
19	 C12	5.169	10.682	24.188	C.2	1	UNK0	0.000	
20	 C13	4.570	11.767	24.857	C.2	1	UNK0	0.000	
21	 C14	5.359	12.821	25.269	C.2	1	UNK0	0.000	
22	  O1	4.931	14.052	25.987	O.3	1	UNK0	0.000	
23	 C15	6.274	14.823	26.110	C.3	1	UNK0	0.000	
24	  O2	7.478	14.044	25.508	O.3	1	UNK0	0.000	
25	 C16	6.819	12.810	24.995	C.2	1	UNK0	0.000	
26	 C17	7.408	11.754	24.337	C.2	1	UNK0	0.000	
27	 C18	6.578	10.690	23.943	C.2	1	UNK0	0.000	
28	 Br1	7.487	9.264	23.066	Br	1	UNK0	0.000	
@<TRIPOS>BOND
1 1 2 1
2 1 10 1
3 1 11 1
4 2 3 1
5 2 8 2
6 3 4 2
7 4 5 1
8 5 6 2
9 6 7 1
10 6 8 1
11 8 9 1
12 9 10 2
13 10 18 1
14 11 12 1
15 12 13 1
16 13 14 1
17 14 16 1
18 15 16 1
19 16 17 1
20 18 19 1
21 19 20 1
22 19 27 2
23 20 21 2
24 21 22 1
25 21 25 1
26 22 23 1
27 23 24 1
28 24 25 1
29 25 26 2
30 26 27 1
31 27 28 1
@<TRIPOS>SUBSTRUCTURE
1	UNK0	1	GROUP	1 ****	UNK
