# created with PyMOL 2.5.0
@<TRIPOS>MOLECULE
MOL
28 31 1                 
SMALL
USER_CHARGES
@<TRIPOS>ATOM
1	  N1	3.267	9.595	24.236	N.pl3	1	UNK0	0.000	
2	  C1	1.859	10.050	24.533	C.2	1	UNK0	0.000	
3	  N2	1.088	9.811	25.610	N.2	1	UNK0	0.000	
4	  C2	-0.135	10.401	25.512	C.2	1	UNK0	0.000	
5	  N3	-0.599	11.257	24.547	N.2	1	UNK0	0.000	
6	  C3	0.163	11.455	23.461	C.2	1	UNK0	0.000	
7	  N4	-0.470	12.265	22.528	N.pl3	1	UNK0	0.000	
8	  C4	1.446	10.881	23.358	C.2	1	UNK0	0.000	
9	  N5	2.675	10.899	22.308	N.2	1	UNK0	0.000	
10	  C5	3.726	10.125	22.890	C.2	1	UNK0	0.000	
11	  C6	4.059	8.801	25.139	C.3	1	UNK0	0.000	
12	  C7	4.095	7.357	24.690	C.3	1	UNK0	0.000	
13	  C8	2.707	6.743	24.668	C.3	1	UNK0	0.000	
14	  N6	2.103	6.857	25.975	N.3	1	UNK0	0.000	
15	  C9	1.282	4.547	26.150	C.3	1	UNK0	0.000	
16	 C10	0.904	6.033	26.088	C.3	1	UNK0	0.000	
17	 C11	-0.036	6.264	24.930	C.3	1	UNK0	0.000	
18	  S1	5.379	10.073	22.352	S.3	1	UNK0	0.000	
19	 C12	6.016	11.476	23.273	C.2	1	UNK0	0.000	
20	 C13	5.221	12.640	23.389	C.2	1	UNK0	0.000	
21	 C14	5.691	13.691	24.140	C.2	1	UNK0	0.000	
22	  O1	4.972	14.953	24.454	O.3	1	UNK0	0.000	
23	 C15	5.995	15.689	25.353	C.3	1	UNK0	0.000	
24	  O2	7.308	14.865	25.567	O.3	1	UNK0	0.000	
25	 C16	7.025	13.631	24.792	C.2	1	UNK0	0.000	
26	 C17	7.819	12.516	24.644	C.2	1	UNK0	0.000	
27	 C18	7.309	11.443	23.885	C.2	1	UNK0	0.000	
28	 Br1	8.477	9.951	23.697	Br	1	UNK0	0.000	
@<TRIPOS>BOND
1 1 2 1
2 1 10 1
3 1 11 1
4 2 3 1
5 2 8 2
6 3 4 2
7 4 5 1
8 5 6 2
9 6 7 1
10 6 8 1
11 8 9 1
12 9 10 2
13 10 18 1
14 11 12 1
15 12 13 1
16 13 14 1
17 14 16 1
18 15 16 1
19 16 17 1
20 18 19 1
21 19 20 1
22 19 27 2
23 20 21 2
24 21 22 1
25 21 25 1
26 22 23 1
27 23 24 1
28 24 25 1
29 25 26 2
30 26 27 1
31 27 28 1
@<TRIPOS>SUBSTRUCTURE
1	UNK0	1	GROUP	1 ****	UNK
