# created with PyMOL 2.5.0
@<TRIPOS>MOLECULE
MOL
49 52 1                 
SMALL
USER_CHARGES
@<TRIPOS>ATOM
1	 H21	5.800	16.820	26.790	 H	1	UNK0	0.000	
2	 H05	5.280	10.920	26.900	 H	1	UNK0	0.000	
3	 H07	4.630	9.020	25.230	 H	1	UNK0	0.000	
4	 H19	6.810	15.030	31.210	 H	1	UNK0	0.000	
5	 H20	5.110	14.540	31.020	 H	1	UNK0	0.000	
6	 H18	7.050	11.980	27.470	 H	1	UNK0	0.000	
7	 H04	3.580	11.020	27.300	 H	1	UNK0	0.000	
8	 H03	0.350	14.420	22.360	 H	1	UNK0	0.000	
9	 H10	1.690	10.000	27.260	 H	1	UNK0	0.000	
10	 H02	1.830	14.040	21.680	 H	1	UNK0	0.000	
11	 H08	2.710	7.680	25.840	 H	1	UNK0	0.000	
12	 H01	-0.510	11.980	25.570	 H	1	UNK0	0.000	
13	 H09	2.170	9.220	25.210	 H	1	UNK0	0.000	
14	 H06	4.560	8.650	26.970	 H	1	UNK0	0.000	
15	 H13	-1.140	8.310	28.330	 H	1	UNK0	0.000	
16	 H12	-0.490	9.880	27.810	 H	1	UNK0	0.000	
17	 H11	0.160	9.070	29.250	 H	1	UNK0	0.000	
18	 H14	0.350	8.030	26.380	 H	1	UNK0	0.000	
19	 H17	1.590	6.990	29.010	 H	1	UNK0	0.000	
20	 H16	0.200	6.270	28.180	 H	1	UNK0	0.000	
21	 H15	1.800	6.270	27.410	 H	1	UNK0	0.000	
22	  N1	4.070	11.570	25.400	N.pl3	1	UNK0	0.000	
23	  C1	2.670	12.010	25.060	C.2	1	UNK0	0.000	
24	  N2	1.520	11.660	25.690	N.2	1	UNK0	0.000	
25	  C2	0.450	12.260	25.130	C.2	1	UNK0	0.000	
26	  N3	0.400	13.180	24.120	N.2	1	UNK0	0.000	
27	  C3	1.560	13.510	23.510	C.2	1	UNK0	0.000	
28	  N4	1.340	14.440	22.500	N.pl3	1	UNK0	0.000	
29	  C4	2.780	12.930	23.900	C.2	1	UNK0	0.000	
30	  N5	4.350	13.020	23.500	N.2	1	UNK0	0.000	
31	  C5	5.080	12.220	24.440	C.2	1	UNK0	0.000	
32	  C6	4.290	10.720	26.510	C.3	1	UNK0	0.000	
33	  C7	4.110	9.230	26.170	C.3	1	UNK0	0.000	
34	  C8	2.680	8.750	26.050	C.3	1	UNK0	0.000	
35	  N6	1.980	9.020	27.300	N.3	1	UNK0	0.000	
36	  C9	-0.230	8.900	28.240	C.3	1	UNK0	0.000	
37	 C10	0.780	8.190	27.380	C.3	1	UNK0	0.000	
38	 C11	1.120	6.850	28.030	C.3	1	UNK0	0.000	
39	  S1	6.830	12.370	24.660	S.3	1	UNK0	0.000	
40	 C12	6.700	13.560	25.990	C.2	1	UNK0	0.000	
41	 C13	6.820	13.020	27.290	C.2	1	UNK0	0.000	
42	 C14	6.560	13.830	28.370	C.2	1	UNK0	0.000	
43	  O1	6.510	13.420	29.790	O.3	1	UNK0	0.000	
44	 C15	6.050	14.730	30.490	C.3	1	UNK0	0.000	
45	  O2	5.830	15.900	29.480	O.3	1	UNK0	0.000	
46	 C16	6.170	15.240	28.180	C.2	1	UNK0	0.000	
47	 C17	6.080	15.780	26.920	C.2	1	UNK0	0.000	
48	 C18	6.360	14.940	25.830	C.2	1	UNK0	0.000	
49	 Br1	6.200	15.780	24.130	Br	1	UNK0	0.000	
@<TRIPOS>BOND
1 22 23 1
2 22 31 1
3 22 32 1
4 23 24 1
5 23 29 2
6 24 25 2
7 12 25 1
8 25 26 1
9 26 27 2
10 27 28 1
11 27 29 1
12 8 28 1
13 10 28 1
14 29 30 1
15 30 31 2
16 31 39 1
17 2 32 1
18 7 32 1
19 32 33 1
20 3 33 1
21 14 33 1
22 33 34 1
23 11 34 1
24 13 34 1
25 34 35 1
26 9 35 1
27 35 37 1
28 15 36 1
29 16 36 1
30 17 36 1
31 36 37 1
32 18 37 1
33 37 38 1
34 19 38 1
35 20 38 1
36 21 38 1
37 39 40 1
38 40 41 1
39 40 48 2
40 6 41 1
41 41 42 2
42 42 43 1
43 42 46 1
44 43 44 1
45 4 44 1
46 5 44 1
47 44 45 1
48 45 46 1
49 46 47 2
50 1 47 1
51 47 48 1
52 48 49 1
@<TRIPOS>SUBSTRUCTURE
1	UNK0	1	GROUP	1 ****	UNK
