# created with PyMOL 2.5.0
@<TRIPOS>MOLECULE
MOL
49 52 1                 
SMALL
USER_CHARGES
@<TRIPOS>ATOM
1	 H21	9.450	13.030	25.690	 H	1	UNK0	0.000	
2	 H05	5.610	9.920	25.620	 H	1	UNK0	0.000	
3	 H07	4.990	8.050	24.120	 H	1	UNK0	0.000	
4	 H19	6.340	16.530	26.990	 H	1	UNK0	0.000	
5	 H20	7.070	17.270	25.550	 H	1	UNK0	0.000	
6	 H18	4.930	13.510	23.500	 H	1	UNK0	0.000	
7	 H04	4.170	9.640	26.620	 H	1	UNK0	0.000	
8	 H03	-0.290	13.860	23.740	 H	1	UNK0	0.000	
9	 H10	2.260	8.630	26.520	 H	1	UNK0	0.000	
10	 H02	-0.650	12.680	22.860	 H	1	UNK0	0.000	
11	 H08	3.210	6.490	24.760	 H	1	UNK0	0.000	
12	 H01	-0.270	11.080	26.830	 H	1	UNK0	0.000	
13	 H09	2.560	8.080	24.350	 H	1	UNK0	0.000	
14	 H06	5.180	7.490	25.780	 H	1	UNK0	0.000	
15	 H13	0.720	4.800	26.690	 H	1	UNK0	0.000	
16	 H12	2.350	5.130	27.290	 H	1	UNK0	0.000	
17	 H11	2.050	5.020	25.540	 H	1	UNK0	0.000	
18	 H14	0.820	7.110	27.420	 H	1	UNK0	0.000	
19	 H17	-0.560	6.630	25.470	 H	1	UNK0	0.000	
20	 H16	0.800	6.840	24.380	 H	1	UNK0	0.000	
21	 H15	0.170	8.230	25.280	 H	1	UNK0	0.000	
22	  N1	3.820	10.380	24.730	N.pl3	1	UNK0	0.000	
23	  C1	2.430	10.880	25.040	C.2	1	UNK0	0.000	
24	  N2	1.650	10.640	26.110	N.2	1	UNK0	0.000	
25	  C2	0.450	11.280	26.030	C.2	1	UNK0	0.000	
26	  N3	0.020	12.180	25.090	N.2	1	UNK0	0.000	
27	  C3	0.790	12.380	24.010	C.2	1	UNK0	0.000	
28	  N4	0.190	13.240	23.100	N.pl3	1	UNK0	0.000	
29	  C4	2.050	11.760	23.890	C.2	1	UNK0	0.000	
30	  N5	3.280	11.760	22.840	N.2	1	UNK0	0.000	
31	  C5	4.300	10.930	23.400	C.2	1	UNK0	0.000	
32	  C6	4.580	9.530	25.610	C.3	1	UNK0	0.000	
33	  C7	4.560	8.100	25.120	C.3	1	UNK0	0.000	
34	  C8	3.150	7.540	25.080	C.3	1	UNK0	0.000	
35	  N6	2.550	7.640	26.390	N.3	1	UNK0	0.000	
36	  C9	1.640	5.360	26.500	C.3	1	UNK0	0.000	
37	 C10	1.320	6.860	26.480	C.3	1	UNK0	0.000	
38	 C11	0.390	7.160	25.330	C.3	1	UNK0	0.000	
39	  S1	5.950	10.830	22.860	S.3	1	UNK0	0.000	
40	 C12	6.640	12.180	23.820	C.2	1	UNK0	0.000	
41	 C13	5.890	13.370	23.970	C.2	1	UNK0	0.000	
42	 C14	6.400	14.380	24.750	C.2	1	UNK0	0.000	
43	  O1	5.730	15.660	25.100	O.3	1	UNK0	0.000	
44	 C15	6.780	16.330	26.020	C.3	1	UNK0	0.000	
45	  O2	8.060	15.450	26.210	O.3	1	UNK0	0.000	
46	 C16	7.730	14.250	25.400	C.2	1	UNK0	0.000	
47	 C17	8.480	13.110	25.220	C.2	1	UNK0	0.000	
48	 C18	7.930	12.080	24.430	C.2	1	UNK0	0.000	
49	 Br1	9.040	10.550	24.200	Br	1	UNK0	0.000	
@<TRIPOS>BOND
1 22 23 1
2 22 31 1
3 22 32 1
4 23 24 1
5 23 29 2
6 24 25 2
7 12 25 1
8 25 26 1
9 26 27 2
10 27 28 1
11 27 29 1
12 8 28 1
13 10 28 1
14 29 30 1
15 30 31 2
16 31 39 1
17 2 32 1
18 7 32 1
19 32 33 1
20 3 33 1
21 14 33 1
22 33 34 1
23 11 34 1
24 13 34 1
25 34 35 1
26 9 35 1
27 35 37 1
28 15 36 1
29 16 36 1
30 17 36 1
31 36 37 1
32 18 37 1
33 37 38 1
34 19 38 1
35 20 38 1
36 21 38 1
37 39 40 1
38 40 41 1
39 40 48 2
40 6 41 1
41 41 42 2
42 42 43 1
43 42 46 1
44 43 44 1
45 4 44 1
46 5 44 1
47 44 45 1
48 45 46 1
49 46 47 2
50 1 47 1
51 47 48 1
52 48 49 1
@<TRIPOS>SUBSTRUCTURE
1	UNK0	1	GROUP	1 ****	UNK
