# created with PyMOL 2.5.0
@<TRIPOS>MOLECULE
MOL
28 31 1                 
SMALL
USER_CHARGES
@<TRIPOS>ATOM
1	  N1	1.401	11.277	25.211	N.pl3	1	UNK0	0.000	
2	  C1	-0.109	11.285	25.119	C.2	1	UNK0	0.000	
3	  N2	-0.994	10.457	25.694	N.2	1	UNK0	0.000	
4	  C2	-2.275	10.770	25.345	C.2	1	UNK0	0.000	
5	  N3	-2.707	11.729	24.483	N.2	1	UNK0	0.000	
6	  C3	-1.821	12.567	23.938	C.2	1	UNK0	0.000	
7	  N4	-2.405	13.442	23.043	N.pl3	1	UNK0	0.000	
8	  C4	-0.444	12.453	24.236	C.2	1	UNK0	0.000	
9	  N5	0.929	13.199	23.848	N.2	1	UNK0	0.000	
10	  C5	1.998	12.480	24.491	C.2	1	UNK0	0.000	
11	  C6	2.130	10.217	25.859	C.3	1	UNK0	0.000	
12	  C7	2.232	8.925	25.055	C.3	1	UNK0	0.000	
13	  C8	1.063	7.971	25.244	C.3	1	UNK0	0.000	
14	  N6	0.529	7.870	26.611	N.3	1	UNK0	0.000	
15	  C9	2.766	7.393	27.585	C.3	1	UNK0	0.000	
16	 C10	1.304	7.039	27.528	C.3	1	UNK0	0.000	
17	 C11	1.171	5.575	27.178	C.3	1	UNK0	0.000	
18	  S1	3.663	12.619	24.038	S.3	1	UNK0	0.000	
19	 C12	4.477	13.114	25.531	C.2	1	UNK0	0.000	
20	 C13	4.216	14.414	26.005	C.2	1	UNK0	0.000	
21	 C14	5.042	14.941	26.968	C.2	1	UNK0	0.000	
22	  O1	5.043	16.330	27.506	O.3	1	UNK0	0.000	
23	 C15	6.313	16.326	28.399	C.3	1	UNK0	0.000	
24	  O2	7.033	14.951	28.423	O.3	1	UNK0	0.000	
25	 C16	6.188	14.144	27.498	C.2	1	UNK0	0.000	
26	 C17	6.431	12.873	27.056	C.2	1	UNK0	0.000	
27	 C18	5.575	12.359	26.052	C.2	1	UNK0	0.000	
28	 Br1	6.065	10.661	25.352	Br	1	UNK0	0.000	
@<TRIPOS>BOND
1 1 2 1
2 1 10 1
3 1 11 1
4 2 3 1
5 2 8 2
6 3 4 2
7 4 5 1
8 5 6 2
9 6 7 1
10 6 8 1
11 8 9 1
12 9 10 2
13 10 18 1
14 11 12 1
15 12 13 1
16 13 14 1
17 14 16 1
18 15 16 1
19 16 17 1
20 18 19 1
21 19 20 1
22 19 27 2
23 20 21 2
24 21 22 1
25 21 25 1
26 22 23 1
27 23 24 1
28 24 25 1
29 25 26 2
30 26 27 1
31 27 28 1
@<TRIPOS>SUBSTRUCTURE
1	UNK0	1	GROUP	1 ****	UNK
