# created with PyMOL 2.5.0
@<TRIPOS>MOLECULE
MOL
28 31 1                 
SMALL
USER_CHARGES
@<TRIPOS>ATOM
1	  N1	1.813	10.386	24.593	N.pl3	1	UNK0	0.000	
2	  C1	0.412	10.897	24.515	C.2	1	UNK0	0.000	
3	  N2	-0.665	10.693	25.301	N.2	1	UNK0	0.000	
4	  C2	-1.806	11.290	24.811	C.2	1	UNK0	0.000	
5	  N3	-1.920	12.122	23.735	N.2	1	UNK0	0.000	
6	  C3	-0.863	12.346	22.960	C.2	1	UNK0	0.000	
7	  N4	-1.117	13.129	21.855	N.pl3	1	UNK0	0.000	
8	  C4	0.358	11.748	23.279	C.2	1	UNK0	0.000	
9	  N5	1.765	11.722	22.594	N.2	1	UNK0	0.000	
10	  C5	2.548	10.807	23.357	C.2	1	UNK0	0.000	
11	  C6	2.447	9.734	25.725	C.3	1	UNK0	0.000	
12	  C7	2.505	8.233	25.556	C.3	1	UNK0	0.000	
13	  C8	1.206	7.526	25.896	C.3	1	UNK0	0.000	
14	  N6	0.401	8.213	26.904	N.3	1	UNK0	0.000	
15	  C9	1.109	7.468	29.097	C.3	1	UNK0	0.000	
16	 C10	0.025	7.381	28.031	C.3	1	UNK0	0.000	
17	 C11	-0.218	5.949	27.632	C.3	1	UNK0	0.000	
18	  S1	4.247	10.545	23.192	S.3	1	UNK0	0.000	
19	 C12	4.910	12.090	23.839	C.2	1	UNK0	0.000	
20	 C13	4.074	13.015	24.516	C.2	1	UNK0	0.000	
21	 C14	4.636	14.139	25.076	C.2	1	UNK0	0.000	
22	  O1	3.990	15.264	25.790	O.3	1	UNK0	0.000	
23	 C15	5.030	16.372	25.648	C.3	1	UNK0	0.000	
24	  O2	6.409	15.741	25.497	O.3	1	UNK0	0.000	
25	 C16	6.086	14.387	24.948	C.2	1	UNK0	0.000	
26	 C17	6.923	13.502	24.301	C.2	1	UNK0	0.000	
27	 C18	6.320	12.348	23.751	C.2	1	UNK0	0.000	
28	 Br1	7.536	11.132	22.925	Br	1	UNK0	0.000	
@<TRIPOS>BOND
1 1 2 1
2 1 10 1
3 1 11 1
4 2 3 1
5 2 8 2
6 3 4 2
7 4 5 1
8 5 6 2
9 6 7 1
10 6 8 1
11 8 9 1
12 9 10 2
13 10 18 1
14 11 12 1
15 12 13 1
16 13 14 1
17 14 16 1
18 15 16 1
19 16 17 1
20 18 19 1
21 19 20 1
22 19 27 2
23 20 21 2
24 21 22 1
25 21 25 1
26 22 23 1
27 23 24 1
28 24 25 1
29 25 26 2
30 26 27 1
31 27 28 1
@<TRIPOS>SUBSTRUCTURE
1	UNK0	1	GROUP	1 ****	UNK
