data/CDK2/cocry_dataset/1b38_ATP_LIG.pdb
 OpenBabel03092320563D

 47 49  0  0  1  0  0  0  0  0999 V2000
    4.2584   -1.0454   -4.3365 P   0  0  0  0  0  0  0  0  0  0  0  0
    3.5415   -0.4258   -3.1868 O   0  0  0  0  0  0  0  0  0  0  0  0
    5.6667   -0.3524   -4.6139 O   0  0  0  0  0  0  0  0  0  0  0  0
    3.4952   -0.7741   -5.7135 O   0  0  0  0  0  0  0  0  0  0  0  0
    4.4875   -2.6058   -4.2556 O   0  0  0  0  0  0  0  0  0  0  0  0
    5.3229   -3.3885   -3.1635 P   0  0  1  0  0  0  0  0  0  0  0  0
    5.7167   -4.7845   -3.5328 O   0  0  0  0  0  0  0  0  0  0  0  0
    6.6342   -2.4860   -2.9718 O   0  0  0  0  0  0  0  0  0  0  0  0
    4.6403   -3.2498   -1.7497 O   0  0  0  0  0  0  0  0  0  0  0  0
    3.3940   -4.0389   -1.1752 P   0  0  2  0  0  0  0  0  0  0  0  0
    2.2361   -4.1884   -2.1014 O   0  0  0  0  0  0  0  0  0  0  0  0
    3.0303   -3.1373    0.0984 O   0  0  0  0  0  0  0  0  0  0  0  0
    3.9388   -5.3729   -0.4612 O   0  0  0  0  0  0  0  0  0  0  0  0
    3.9801   -6.5934   -1.1903 C   0  0  0  0  0  0  0  0  0  0  0  0
    3.9985   -7.7904   -0.2192 C   0  0  1  0  0  0  0  0  0  0  0  0
    2.7072   -7.9573    0.4239 O   0  0  0  0  0  0  0  0  0  0  0  0
    2.1282   -9.2122   -0.0072 C   0  0  2  0  0  0  0  0  0  0  0  0
    2.9181   -9.6838   -1.2261 C   0  0  1  0  0  0  0  0  0  0  0  0
    4.2967   -9.1177   -0.9223 C   0  0  2  0  0  0  0  0  0  0  0  0
    4.9718  -10.0489   -0.0521 O   0  0  0  0  0  0  0  0  0  0  0  0
    2.9467  -11.1070   -1.3439 O   0  0  0  0  0  0  0  0  0  0  0  0
    0.7070   -9.0485   -0.2280 N   0  0  0  0  0  0  0  0  0  0  0  0
   -0.2862   -9.7387    0.4191 C   0  0  0  0  0  0  0  0  0  0  0  0
   -1.4854   -9.3945   -0.0055 N   0  0  0  0  0  0  0  0  0  0  0  0
   -1.2534   -8.4377   -0.9751 C   0  0  0  0  0  0  0  0  0  0  0  0
   -2.1104   -7.6960   -1.8046 C   0  0  0  0  0  0  0  0  0  0  0  0
   -3.4957   -7.8090   -1.7678 N   0  0  0  0  0  0  0  0  0  0  0  0
   -1.5642   -6.8435   -2.7023 N   0  0  0  0  0  0  0  0  0  0  0  0
   -0.2186   -6.7299   -2.7414 C   0  0  0  0  0  0  0  0  0  0  0  0
    0.6960   -7.3888   -2.0041 N   0  0  0  0  0  0  0  0  0  0  0  0
    0.1054   -8.2227   -1.1348 C   0  0  0  0  0  0  0  0  0  0  0  0
    5.8933    0.2757   -3.9033 H   0  0  0  0  0  0  0  0  0  0  0  0
    2.5712   -0.5030   -5.5690 H   0  0  0  0  0  0  0  0  0  0  0  0
    7.4362   -3.0336   -2.9900 H   0  0  0  0  0  0  0  0  0  0  0  0
    2.0879   -3.2208    0.3326 H   0  0  0  0  0  0  0  0  0  0  0  0
    4.8997   -6.5886   -1.7801 H   0  0  0  0  0  0  0  0  0  0  0  0
    3.1242   -6.6487   -1.8627 H   0  0  0  0  0  0  0  0  0  0  0  0
    4.7173   -7.5950    0.5850 H   0  0  0  0  0  0  0  0  0  0  0  0
    2.2425   -9.9242    0.8206 H   0  0  0  0  0  0  0  0  0  0  0  0
    2.5353   -9.2666   -2.1619 H   0  0  0  0  0  0  0  0  0  0  0  0
    4.9200   -9.0180   -1.8149 H   0  0  0  0  0  0  0  0  0  0  0  0
    4.7575   -9.8372    0.8755 H   0  0  0  0  0  0  0  0  0  0  0  0
    3.8140  -11.3968   -0.9895 H   0  0  0  0  0  0  0  0  0  0  0  0
   -0.0829  -10.4794    1.1838 H   0  0  0  0  0  0  0  0  0  0  0  0
   -3.8133   -8.6792   -1.3566 H   0  0  0  0  0  0  0  0  0  0  0  0
   -3.9160   -7.5203   -2.6408 H   0  0  0  0  0  0  0  0  0  0  0  0
    0.1758   -6.0173   -3.4620 H   0  0  0  0  0  0  0  0  0  0  0  0
  1  2  2  0  0  0  0
  1  3  1  0  0  0  0
  1  4  1  0  0  0  0
  1  5  1  0  0  0  0
  3 32  1  0  0  0  0
  4 33  1  0  0  0  0
  5  6  1  0  0  0  0
  6  7  2  6  0  0  0
  6  8  1  0  0  0  0
  6  9  1  0  0  0  0
  8 34  1  0  0  0  0
 10 12  1  0  0  0  0
 10 13  1  0  0  0  0
 10 11  2  6  0  0  0
 10  9  1  0  0  0  0
 12 35  1  0  0  0  0
 13 14  1  0  0  0  0
 14 15  1  0  0  0  0
 14 36  1  0  0  0  0
 14 37  1  0  0  0  0
 15 16  1  0  0  0  0
 15 19  1  0  0  0  0
 15 38  1  1  0  0  0
 16 17  1  0  0  0  0
 17 18  1  0  0  0  0
 17 22  1  0  0  0  0
 17 39  1  1  0  0  0
 18 19  1  0  0  0  0
 18 21  1  0  0  0  0
 18 40  1  6  0  0  0
 19 20  1  0  0  0  0
 19 41  1  6  0  0  0
 20 42  1  0  0  0  0
 21 43  1  0  0  0  0
 22 23  1  0  0  0  0
 22 31  1  0  0  0  0
 23 24  2  0  0  0  0
 23 44  1  0  0  0  0
 24 25  1  0  0  0  0
 25 26  1  0  0  0  0
 25 31  2  0  0  0  0
 26 27  1  0  0  0  0
 26 28  2  0  0  0  0
 27 45  1  0  0  0  0
 27 46  1  0  0  0  0
 28 29  1  0  0  0  0
 29 30  2  0  0  0  0
 29 47  1  0  0  0  0
 30 31  1  0  0  0  0
M  END
$$$$
