data/CDK2/cocry_dataset/1ckp_PVB_LIG.pdb
 OpenBabel03092320563D

 28 30  0  0  0  0  0  0  0  0999 V2000
   -2.4132    0.0839   -0.0216 N   0  0  0  0  0  0  0  0  0  0  0  0
   -1.8957   -1.1575    0.0042 C   0  0  0  0  0  0  0  0  0  0  0  0
   -0.6013   -1.5094    0.0369 N   0  0  0  0  0  0  0  0  0  0  0  0
    0.1913   -0.4271    0.0587 C   0  0  0  0  0  0  0  0  0  0  0  0
    1.5553   -0.3972    0.0723 N   0  0  0  0  0  0  0  0  0  0  0  0
    2.4317   -1.5380    0.0538 C   0  0  0  0  0  0  0  0  0  0  0  0
    1.9446    0.9150    0.0858 C   0  0  0  0  0  0  0  0  0  0  0  0
    0.9120    1.7345    0.0819 N   0  0  0  0  0  0  0  0  0  0  0  0
   -0.1952    0.9059    0.0542 C   0  0  0  0  0  0  0  0  0  0  0  0
   -1.5757    1.1613   -0.0052 C   0  0  0  0  0  0  0  0  0  0  0  0
   -2.1036    2.4625   -0.0290 N   0  0  0  0  0  0  0  0  0  0  0  0
   -3.3447    2.8617   -0.5547 C   0  0  0  0  0  0  0  0  0  0  0  0
   -4.0167    3.9600   -0.0038 C   0  0  0  0  0  0  0  0  0  0  0  0
   -5.3015    4.3057   -0.4402 C   0  0  0  0  0  0  0  0  0  0  0  0
   -5.9224    3.5663   -1.4475 C   0  0  0  0  0  0  0  0  0  0  0  0
   -5.2536    2.4878   -2.0159 C   0  0  0  0  0  0  0  0  0  0  0  0
   -6.0015    1.5729   -3.2665 Cl  0  0  0  0  0  0  0  0  0  0  0  0
   -3.9810    2.1357   -1.5707 C   0  0  0  0  0  0  0  0  0  0  0  0
   -2.6182   -1.9685   -0.0057 H   0  0  0  0  0  0  0  0  0  0  0  0
    1.8477   -2.4610    0.0132 H   0  0  0  0  0  0  0  0  0  0  0  0
    3.0354   -1.5250    0.9644 H   0  0  0  0  0  0  0  0  0  0  0  0
    3.0702   -1.4710   -0.8306 H   0  0  0  0  0  0  0  0  0  0  0  0
    2.9856    1.2132    0.0931 H   0  0  0  0  0  0  0  0  0  0  0  0
   -1.4090    3.1909    0.0947 H   0  0  0  0  0  0  0  0  0  0  0  0
   -3.5636    4.5280    0.8050 H   0  0  0  0  0  0  0  0  0  0  0  0
   -5.8267    5.1392    0.0182 H   0  0  0  0  0  0  0  0  0  0  0  0
   -6.9229    3.8266   -1.7783 H   0  0  0  0  0  0  0  0  0  0  0  0
   -3.4789    1.2880   -2.0285 H   0  0  0  0  0  0  0  0  0  0  0  0
  1  2  1  0  0  0  0
  1 10  2  0  0  0  0
  2  3  2  0  0  0  0
  2 19  1  0  0  0  0
  3  4  1  0  0  0  0
  4  5  1  0  0  0  0
  4  9  2  0  0  0  0
  5  6  1  0  0  0  0
  5  7  1  0  0  0  0
  6 20  1  0  0  0  0
  6 21  1  0  0  0  0
  6 22  1  0  0  0  0
  7  8  2  0  0  0  0
  7 23  1  0  0  0  0
  8  9  1  0  0  0  0
  9 10  1  0  0  0  0
 10 11  1  0  0  0  0
 11 12  1  0  0  0  0
 11 24  1  0  0  0  0
 12 13  1  0  0  0  0
 12 18  2  0  0  0  0
 13 14  2  0  0  0  0
 13 25  1  0  0  0  0
 14 15  1  0  0  0  0
 14 26  1  0  0  0  0
 15 16  2  0  0  0  0
 15 27  1  0  0  0  0
 16 17  1  0  0  0  0
 16 18  1  0  0  0  0
 18 28  1  0  0  0  0
M  END
$$$$
