data/CDK2/cocry_dataset/1di8_DTQ_LIG.pdb
 OpenBabel03092320563D

 37 39  0  0  0  0  0  0  0  0999 V2000
   -2.2078    0.7667   -0.0007 N   0  0  0  0  0  0  0  0  0  0  0  0
   -2.1651   -0.5585   -0.1284 C   0  0  0  0  0  0  0  0  0  0  0  0
   -1.0563   -1.2927   -0.2216 N   0  0  0  0  0  0  0  0  0  0  0  0
    0.1071   -0.6443   -0.1344 C   0  0  0  0  0  0  0  0  0  0  0  0
    0.2109    0.7389    0.0336 C   0  0  0  0  0  0  0  0  0  0  0  0
   -1.0263    1.4148    0.0545 C   0  0  0  0  0  0  0  0  0  0  0  0
   -1.0496    2.8395    0.1092 N   0  0  0  0  0  0  0  0  0  0  0  0
   -2.2161    3.6021    0.3699 C   0  0  0  0  0  0  0  0  0  0  0  0
   -3.0329    3.3019    1.4691 C   0  0  0  0  0  0  0  0  0  0  0  0
   -4.1957    4.0308    1.7019 C   0  0  0  0  0  0  0  0  0  0  0  0
   -4.5598    5.0761    0.8645 C   0  0  0  0  0  0  0  0  0  0  0  0
   -3.7474    5.3999   -0.2207 C   0  0  0  0  0  0  0  0  0  0  0  0
   -2.5773    4.6709   -0.4626 C   0  0  0  0  0  0  0  0  0  0  0  0
   -5.0159    3.7342    2.7512 O   0  0  0  0  0  0  0  0  0  0  0  0
    1.5012    1.3109    0.2230 C   0  0  0  0  0  0  0  0  0  0  0  0
    2.6679    0.5221    0.2409 C   0  0  0  0  0  0  0  0  0  0  0  0
    2.5534   -0.8519    0.0198 C   0  0  0  0  0  0  0  0  0  0  0  0
    1.2709   -1.3928   -0.1661 C   0  0  0  0  0  0  0  0  0  0  0  0
    3.4855   -1.8472    0.0261 O   0  0  0  0  0  0  0  0  0  0  0  0
    4.8661   -1.5632    0.0423 C   0  0  0  0  0  0  0  0  0  0  0  0
    3.7805    1.1335    0.7557 O   0  0  0  0  0  0  0  0  0  0  0  0
    4.7927    1.4782   -0.1843 C   0  0  0  0  0  0  0  0  0  0  0  0
   -3.1122   -1.0850   -0.1571 H   0  0  0  0  0  0  0  0  0  0  0  0
   -0.5398    3.1964   -0.6926 H   0  0  0  0  0  0  0  0  0  0  0  0
   -2.7498    2.4897    2.1321 H   0  0  0  0  0  0  0  0  0  0  0  0
   -5.4754    5.6290    1.0520 H   0  0  0  0  0  0  0  0  0  0  0  0
   -4.0326    6.2111   -0.8852 H   0  0  0  0  0  0  0  0  0  0  0  0
   -1.9704    4.9310   -1.3261 H   0  0  0  0  0  0  0  0  0  0  0  0
   -4.6793    2.9269    3.1748 H   0  0  0  0  0  0  0  0  0  0  0  0
    1.5811    2.3752    0.4451 H   0  0  0  0  0  0  0  0  0  0  0  0
    1.1771   -2.4733   -0.2950 H   0  0  0  0  0  0  0  0  0  0  0  0
    5.3947   -2.5217    0.0284 H   0  0  0  0  0  0  0  0  0  0  0  0
    5.1573   -1.0482    0.9596 H   0  0  0  0  0  0  0  0  0  0  0  0
    5.1709   -1.0308   -0.8628 H   0  0  0  0  0  0  0  0  0  0  0  0
    4.9507    2.5603   -0.1704 H   0  0  0  0  0  0  0  0  0  0  0  0
    4.5819    1.1536   -1.2075 H   0  0  0  0  0  0  0  0  0  0  0  0
    5.7293    1.0238    0.1584 H   0  0  0  0  0  0  0  0  0  0  0  0
  1  2  1  0  0  0  0
  1  6  2  0  0  0  0
  2  3  2  0  0  0  0
  2 23  1  0  0  0  0
  3  4  1  0  0  0  0
  4  5  1  0  0  0  0
  4 18  2  0  0  0  0
  5  6  1  0  0  0  0
  5 15  2  0  0  0  0
  6  7  1  0  0  0  0
  7  8  1  0  0  0  0
  7 24  1  0  0  0  0
  8  9  1  0  0  0  0
  8 13  2  0  0  0  0
  9 10  2  0  0  0  0
  9 25  1  0  0  0  0
 10 11  1  0  0  0  0
 10 14  1  0  0  0  0
 11 12  2  0  0  0  0
 11 26  1  0  0  0  0
 12 13  1  0  0  0  0
 12 27  1  0  0  0  0
 13 28  1  0  0  0  0
 14 29  1  0  0  0  0
 15 16  1  0  0  0  0
 15 30  1  0  0  0  0
 16 17  2  0  0  0  0
 16 21  1  0  0  0  0
 17 18  1  0  0  0  0
 17 19  1  0  0  0  0
 18 31  1  0  0  0  0
 19 20  1  0  0  0  0
 20 32  1  0  0  0  0
 20 33  1  0  0  0  0
 20 34  1  0  0  0  0
 21 22  1  0  0  0  0
 22 35  1  0  0  0  0
 22 36  1  0  0  0  0
 22 37  1  0  0  0  0
M  END
$$$$
