data/CDK2/cocry_dataset/1dm2_HMD_LIG.pdb
 OpenBabel03092320563D

 29 31  0  0  1  0  0  0  0  0999 V2000
    2.4080   -3.2851   -0.1360 Br  0  0  0  0  0  0  0  0  0  0  0  0
    2.9621   -1.4594    0.1959 C   0  0  2  0  0  0  0  0  0  0  0  0
    4.3015   -1.1049   -0.3177 N   0  0  0  0  0  0  0  0  0  0  0  0
    4.9375   -0.7628    0.7754 C   0  0  0  0  0  0  0  0  0  0  0  0
    4.3338   -1.1810    2.0445 C   0  0  0  0  0  0  0  0  0  0  0  0
    3.0509   -1.2978    1.6825 C   0  0  0  0  0  0  0  0  0  0  0  0
    5.1617   -2.1141    2.7997 C   0  0  0  0  0  0  0  0  0  0  0  0
    5.4390   -3.3771    2.4036 C   0  0  0  0  0  0  0  0  0  0  0  0
    5.1454   -4.0405    1.2395 N   0  0  0  0  0  0  0  0  0  0  0  0
    5.7731   -5.2490    1.2653 C   0  0  0  0  0  0  0  0  0  0  0  0
    6.4048   -5.5091    2.3588 N   0  0  0  0  0  0  0  0  0  0  0  0
    6.2588   -4.3918    3.1793 C   0  0  0  0  0  0  0  0  0  0  0  0
    6.6760   -4.2522    4.3157 O   0  0  0  0  0  0  0  0  0  0  0  0
    5.6535   -6.0297    0.1814 N   0  0  0  0  0  0  0  0  0  0  0  0
    5.8724   -1.3646    3.8886 C   0  0  0  0  0  0  0  0  0  0  0  0
    6.3086    0.0570    3.4447 C   0  0  0  0  0  0  0  0  0  0  0  0
    6.8756    0.1792    2.0929 N   0  0  0  0  0  0  0  0  0  0  0  0
    6.2601   -0.0092    0.8587 C   0  0  0  0  0  0  0  0  0  0  0  0
    6.7418    0.4792   -0.1557 O   0  0  0  0  0  0  0  0  0  0  0  0
    2.2008   -0.8230   -0.2586 H   0  0  0  0  0  0  0  0  0  0  0  0
    2.4290   -0.4316    1.9558 H   0  0  0  0  0  0  0  0  0  0  0  0
    4.9881   -3.5311    0.3770 H   0  0  0  0  0  0  0  0  0  0  0  0
    4.7610   -5.9841   -0.3021 H   0  0  0  0  0  0  0  0  0  0  0  0
    5.9217   -6.9911    0.3768 H   0  0  0  0  0  0  0  0  0  0  0  0
    6.7696   -1.8953    4.2170 H   0  0  0  0  0  0  0  0  0  0  0  0
    5.2131   -1.2824    4.7654 H   0  0  0  0  0  0  0  0  0  0  0  0
    7.0670    0.4240    4.1451 H   0  0  0  0  0  0  0  0  0  0  0  0
    5.4604    0.7493    3.5062 H   0  0  0  0  0  0  0  0  0  0  0  0
    7.6684    0.8056    2.0023 H   0  0  0  0  0  0  0  0  0  0  0  0
  2  3  1  0  0  0  0
  2  6  1  0  0  0  0
  2  1  1  0  0  0  0
  2 20  1  6  0  0  0
  3  4  2  0  0  0  0
  4  5  1  0  0  0  0
  4 18  1  0  0  0  0
  5  6  2  3  0  0  0
  5  7  1  0  0  0  0
  6 21  1  0  0  0  0
  7  8  2  0  0  0  0
  7 15  1  0  0  0  0
  8  9  1  0  0  0  0
  8 12  1  0  0  0  0
  9 10  1  0  0  0  0
  9 22  1  0  0  0  0
 10 11  2  0  0  0  0
 10 14  1  0  0  0  0
 11 12  1  0  0  0  0
 12 13  2  0  0  0  0
 14 23  1  0  0  0  0
 14 24  1  0  0  0  0
 15 16  1  0  0  0  0
 15 25  1  0  0  0  0
 15 26  1  0  0  0  0
 16 17  1  0  0  0  0
 16 27  1  0  0  0  0
 16 28  1  0  0  0  0
 17 18  1  0  0  0  0
 17 29  1  0  0  0  0
 18 19  2  0  0  0  0
M  END
$$$$
