# created with PyMOL 2.5.0
@<TRIPOS>MOLECULE
MOL
31 35 1                 
SMALL
USER_CHARGES
@<TRIPOS>ATOM
1	  N1	4.065	5.883	20.563	N.3	1	UNK0	0.000	
2	  C1	5.193	5.341	19.822	C.3	1	UNK0	0.000	
3	  C2	4.741	4.101	19.074	C.3	1	UNK0	0.000	
4	  N2	4.121	3.123	19.976	N.pl3	1	UNK0	0.000	
5	  C3	4.690	1.922	20.297	C.2	1	UNK0	0.000	
6	  O1	4.281	1.344	21.298	O.2	1	UNK0	0.000	
7	  C4	3.163	3.645	20.947	C.3	1	UNK0	0.000	
8	  C5	3.675	4.935	21.615	C.3	1	UNK0	0.000	
9	  C6	5.778	1.360	19.626	C.2	1	UNK0	0.000	
10	  C7	5.886	0.579	18.456	C.2	1	UNK0	0.000	
11	  C8	7.235	0.257	18.135	C.2	1	UNK0	0.000	
12	  C9	8.177	0.797	19.073	C.2	1	UNK0	0.000	
13	  S1	7.340	1.659	20.243	S.3	1	UNK0	0.000	
14	 C10	9.556	0.515	18.861	C.2	1	UNK0	0.000	
15	 C11	9.994	-0.226	17.791	C.2	1	UNK0	0.000	
16	 C12	9.042	-0.716	16.943	C.2	1	UNK0	0.000	
17	  N3	7.763	-0.514	17.115	N.pl3	1	UNK0	0.000	
18	  O2	6.971	-1.054	16.236	O.2	1	UNK0	0.000	
19	  S2	4.087	7.574	20.902	S.o2	1	UNK0	0.000	
20	  O3	3.019	7.786	21.863	O.2	1	UNK0	0.000	
21	  O4	4.146	8.242	19.631	O.2	1	UNK0	0.000	
22	  N4	5.520	7.444	23.000	N.2	1	UNK0	0.000	
23	 C13	6.761	7.773	23.538	C.2	1	UNK0	0.000	
24	 C14	7.293	7.584	24.777	C.2	1	UNK0	0.000	
25	 C15	8.603	8.033	25.015	C.2	1	UNK0	0.000	
26	 C16	9.333	8.681	24.023	C.2	1	UNK0	0.000	
27	 Cl1	10.944	9.229	24.391	Cl	1	UNK0	0.000	
28	 C17	8.781	8.910	22.764	C.3	1	UNK0	0.000	
29	 C18	7.510	8.451	22.506	C.2	1	UNK0	0.000	
30	 C19	6.679	8.491	21.317	C.2	1	UNK0	0.000	
31	 C20	5.519	7.863	21.730	C.2	1	UNK0	0.000	
@<TRIPOS>BOND
1 1 2 1
2 1 8 1
3 1 19 1
4 2 3 1
5 3 4 1
6 4 5 1
7 4 7 1
8 5 6 2
9 5 9 1
10 7 8 1
11 9 10 2
12 9 13 1
13 10 11 1
14 11 12 1
15 11 17 2
16 12 13 1
17 12 14 2
18 14 15 1
19 15 16 2
20 16 17 1
21 17 18 1
22 19 20 2
23 19 21 2
24 19 31 1
25 22 23 1
26 22 31 2
27 23 24 2
28 23 29 1
29 24 25 1
30 25 26 2
31 26 27 1
32 26 28 1
33 28 29 1
34 29 30 2
35 30 31 1
@<TRIPOS>SUBSTRUCTURE
1	UNK0	1	GROUP	1 ****	UNK
