# created with PyMOL 2.5.0
@<TRIPOS>MOLECULE
MOL
48 52 1                 
SMALL
USER_CHARGES
@<TRIPOS>ATOM
1	 H10	10.260	0.960	19.550	 H	1	UNK0	0.000	
2	 H07	2.850	5.410	22.220	 H	1	UNK0	0.000	
3	 H17	6.870	8.950	20.340	 H	1	UNK0	0.000	
4	 H08	4.490	4.740	22.240	 H	1	UNK0	0.000	
5	 H13	6.670	7.140	25.550	 H	1	UNK0	0.000	
6	 H09	5.010	0.290	17.840	 H	1	UNK0	0.000	
7	 H11	11.030	-0.360	17.610	 H	1	UNK0	0.000	
8	 H15	9.370	8.370	22.090	 H	1	UNK0	0.000	
9	 H03	5.580	3.670	18.600	 H	1	UNK0	0.000	
10	 H12	9.340	-1.260	16.070	 H	1	UNK0	0.000	
11	 H01	5.970	5.120	20.500	 H	1	UNK0	0.000	
12	 H02	5.520	6.120	19.100	 H	1	UNK0	0.000	
13	 H14	9.010	7.900	25.990	 H	1	UNK0	0.000	
14	 H16	8.730	10.030	22.610	 H	1	UNK0	0.000	
15	 H06	2.190	3.890	20.420	 H	1	UNK0	0.000	
16	 H05	2.990	2.930	21.710	 H	1	UNK0	0.000	
17	 H04	3.980	4.420	18.290	 H	1	UNK0	0.000	
18	  N1	4.030	5.920	20.550	N.3	1	UNK0	0.000	
19	  C1	5.160	5.380	19.810	C.3	1	UNK0	0.000	
20	  C2	4.710	4.140	19.060	C.3	1	UNK0	0.000	
21	  N2	4.090	3.160	19.960	N.pl3	1	UNK0	0.000	
22	  C3	4.660	1.960	20.280	C.2	1	UNK0	0.000	
23	  O1	4.250	1.380	21.280	O.2	1	UNK0	0.000	
24	  C4	3.130	3.680	20.930	C.3	1	UNK0	0.000	
25	  C5	3.640	4.970	21.600	C.3	1	UNK0	0.000	
26	  C6	5.750	1.400	19.610	C.2	1	UNK0	0.000	
27	  C7	5.860	0.620	18.440	C.2	1	UNK0	0.000	
28	  C8	7.210	0.300	18.120	C.2	1	UNK0	0.000	
29	  C9	8.150	0.840	19.060	C.2	1	UNK0	0.000	
30	  S1	7.310	1.700	20.230	S.3	1	UNK0	0.000	
31	 C10	9.530	0.560	18.850	C.2	1	UNK0	0.000	
32	 C11	9.970	-0.180	17.780	C.2	1	UNK0	0.000	
33	 C12	9.020	-0.670	16.930	C.2	1	UNK0	0.000	
34	  N3	7.740	-0.470	17.100	N.pl3	1	UNK0	0.000	
35	  O2	6.950	-1.010	16.220	O.2	1	UNK0	0.000	
36	  S2	4.050	7.610	20.890	S.o2	1	UNK0	0.000	
37	  O3	2.980	7.820	21.850	O.2	1	UNK0	0.000	
38	  O4	4.110	8.280	19.620	O.2	1	UNK0	0.000	
39	  N4	5.480	7.480	22.990	N.2	1	UNK0	0.000	
40	 C13	6.720	7.810	23.530	C.2	1	UNK0	0.000	
41	 C14	7.250	7.620	24.770	C.2	1	UNK0	0.000	
42	 C15	8.560	8.070	25.010	C.2	1	UNK0	0.000	
43	 C16	9.290	8.720	24.020	C.2	1	UNK0	0.000	
44	 Cl1	10.900	9.270	24.390	Cl	1	UNK0	0.000	
45	 C17	8.740	8.950	22.760	C.3	1	UNK0	0.000	
46	 C18	7.470	8.490	22.500	C.2	1	UNK0	0.000	
47	 C19	6.640	8.530	21.310	C.2	1	UNK0	0.000	
48	 C20	5.480	7.900	21.720	C.2	1	UNK0	0.000	
@<TRIPOS>BOND
1 18 19 1
2 18 25 1
3 18 36 1
4 11 19 1
5 12 19 1
6 19 20 1
7 9 20 1
8 17 20 1
9 20 21 1
10 21 22 1
11 21 24 1
12 22 23 2
13 22 26 1
14 15 24 1
15 16 24 1
16 24 25 1
17 2 25 1
18 4 25 1
19 26 27 2
20 26 30 1
21 6 27 1
22 27 28 1
23 28 29 1
24 28 34 2
25 29 30 1
26 29 31 2
27 1 31 1
28 31 32 1
29 7 32 1
30 32 33 2
31 10 33 1
32 33 34 1
33 34 35 1
34 36 37 2
35 36 38 2
36 36 48 1
37 39 40 1
38 39 48 2
39 40 41 2
40 40 46 1
41 5 41 1
42 41 42 1
43 13 42 1
44 42 43 2
45 43 44 1
46 43 45 1
47 8 45 1
48 14 45 1
49 45 46 1
50 46 47 2
51 3 47 1
52 47 48 1
@<TRIPOS>SUBSTRUCTURE
1	UNK0	1	GROUP	1 ****	UNK
