# created with PyMOL 2.5.0
@<TRIPOS>MOLECULE
MOL
48 52 1                 
SMALL
USER_CHARGES
@<TRIPOS>ATOM
1	 H10	11.520	1.370	19.290	 H	1	UNK0	0.000	
2	 H07	4.570	7.430	17.150	 H	1	UNK0	0.000	
3	 H17	9.330	10.500	19.560	 H	1	UNK0	0.000	
4	 H08	5.550	6.780	18.480	 H	1	UNK0	0.000	
5	 H13	6.150	7.120	22.700	 H	1	UNK0	0.000	
6	 H09	7.070	0.640	15.820	 H	1	UNK0	0.000	
7	 H11	12.470	-0.780	18.530	 H	1	UNK0	0.000	
8	 H15	10.320	9.350	22.250	 H	1	UNK0	0.000	
9	 H03	8.640	4.740	16.700	 H	1	UNK0	0.000	
10	 H12	11.260	-2.210	16.820	 H	1	UNK0	0.000	
11	 H01	8.030	6.650	18.220	 H	1	UNK0	0.000	
12	 H02	8.780	7.210	16.710	 H	1	UNK0	0.000	
13	 H14	7.670	7.140	24.560	 H	1	UNK0	0.000	
14	 H16	9.250	10.560	22.950	 H	1	UNK0	0.000	
15	 H06	5.140	5.500	15.750	 H	1	UNK0	0.000	
16	 H05	4.480	4.950	17.290	 H	1	UNK0	0.000	
17	 H04	7.640	5.420	15.450	 H	1	UNK0	0.000	
18	  N1	6.690	7.560	16.870	N.3	1	UNK0	0.000	
19	  C1	7.890	6.730	17.140	C.3	1	UNK0	0.000	
20	  C2	7.740	5.330	16.530	C.3	1	UNK0	0.000	
21	  N2	6.540	4.630	16.990	N.pl3	1	UNK0	0.000	
22	  C3	6.390	3.260	16.940	C.2	1	UNK0	0.000	
23	  O1	5.290	2.800	16.690	O.2	1	UNK0	0.000	
24	  C4	5.330	5.440	16.820	C.3	1	UNK0	0.000	
25	  C5	5.470	6.860	17.400	C.3	1	UNK0	0.000	
26	  C6	7.540	2.420	17.130	C.2	1	UNK0	0.000	
27	  C7	7.760	1.090	16.520	C.2	1	UNK0	0.000	
28	  C8	9.090	0.420	17.050	C.2	1	UNK0	0.000	
29	  C9	9.800	1.240	18.030	C.2	1	UNK0	0.000	
30	  S1	8.880	2.820	18.390	S.3	1	UNK0	0.000	
31	 C10	11.000	0.780	18.560	C.2	1	UNK0	0.000	
32	 C11	11.520	-0.450	18.130	C.2	1	UNK0	0.000	
33	 C12	10.870	-1.270	17.200	C.2	1	UNK0	0.000	
34	  N3	9.650	-0.940	16.660	N.pl3	1	UNK0	0.000	
35	  O2	9.100	-1.570	15.700	O.2	1	UNK0	0.000	
36	  S2	6.830	9.190	17.360	S.o2	1	UNK0	0.000	
37	  O3	5.530	9.800	17.150	O.2	1	UNK0	0.000	
38	  O4	8.020	9.690	16.700	O.2	1	UNK0	0.000	
39	  N4	6.440	8.420	20.150	N.2	1	UNK0	0.000	
40	 C13	7.180	8.520	21.560	C.2	1	UNK0	0.000	
41	 C14	6.990	7.800	22.680	C.2	1	UNK0	0.000	
42	 C15	7.860	7.810	23.720	C.2	1	UNK0	0.000	
43	 C16	8.960	8.580	23.720	C.2	1	UNK0	0.000	
44	 Cl1	10.110	8.460	25.000	Cl	1	UNK0	0.000	
45	 C17	9.310	9.540	22.580	C.3	1	UNK0	0.000	
46	 C18	8.380	9.390	21.400	C.2	1	UNK0	0.000	
47	 C19	8.530	9.910	20.000	C.2	1	UNK0	0.000	
48	 C20	7.160	9.210	19.170	C.2	1	UNK0	0.000	
@<TRIPOS>BOND
1 18 19 1
2 18 25 1
3 18 36 1
4 11 19 1
5 12 19 1
6 19 20 1
7 9 20 1
8 17 20 1
9 20 21 1
10 21 22 1
11 21 24 1
12 22 23 2
13 22 26 1
14 15 24 1
15 16 24 1
16 24 25 1
17 2 25 1
18 4 25 1
19 26 27 2
20 26 30 1
21 6 27 1
22 27 28 1
23 28 29 1
24 28 34 2
25 29 30 1
26 29 31 2
27 1 31 1
28 31 32 1
29 7 32 1
30 32 33 2
31 10 33 1
32 33 34 1
33 34 35 1
34 36 37 2
35 36 38 2
36 36 48 1
37 39 40 1
38 39 48 2
39 40 41 2
40 40 46 1
41 5 41 1
42 41 42 1
43 13 42 1
44 42 43 2
45 43 44 1
46 43 45 1
47 8 45 1
48 14 45 1
49 45 46 1
50 46 47 2
51 3 47 1
52 47 48 1
@<TRIPOS>SUBSTRUCTURE
1	UNK0	1	GROUP	1 ****	UNK
