# created with PyMOL 2.5.0
@<TRIPOS>MOLECULE
MOL
48 52 1                 
SMALL
USER_CHARGES
@<TRIPOS>ATOM
1	 H10	10.310	1.110	19.790	 H	1	UNK0	0.000	
2	 H07	4.490	7.530	23.570	 H	1	UNK0	0.000	
3	 H17	10.000	9.610	22.800	 H	1	UNK0	0.000	
4	 H08	6.030	6.650	23.700	 H	1	UNK0	0.000	
5	 H13	8.560	7.230	27.690	 H	1	UNK0	0.000	
6	 H09	4.750	1.940	18.860	 H	1	UNK0	0.000	
7	 H11	10.380	-0.500	17.920	 H	1	UNK0	0.000	
8	 H15	12.090	8.000	24.610	 H	1	UNK0	0.000	
9	 H03	7.140	5.330	20.110	 H	1	UNK0	0.000	
10	 H12	8.280	-1.010	16.570	 H	1	UNK0	0.000	
11	 H01	7.720	6.860	21.960	 H	1	UNK0	0.000	
12	 H02	7.380	7.800	20.490	 H	1	UNK0	0.000	
13	 H14	10.810	6.960	28.440	 H	1	UNK0	0.000	
14	 H16	11.900	9.530	25.450	 H	1	UNK0	0.000	
15	 H06	3.810	6.130	21.660	 H	1	UNK0	0.000	
16	 H05	4.190	5.150	23.080	 H	1	UNK0	0.000	
17	 H04	5.660	6.210	19.790	 H	1	UNK0	0.000	
18	  N1	5.890	7.920	22.020	N.3	1	UNK0	0.000	
19	  C1	6.940	7.170	21.250	C.3	1	UNK0	0.000	
20	  C2	6.350	5.900	20.590	C.3	1	UNK0	0.000	
21	  N2	5.560	5.060	21.480	N.pl3	1	UNK0	0.000	
22	  C3	5.180	3.780	21.160	C.2	1	UNK0	0.000	
23	  O1	4.100	3.360	21.540	O.2	1	UNK0	0.000	
24	  C4	4.620	5.800	22.320	C.3	1	UNK0	0.000	
25	  C5	5.260	7.010	23.000	C.3	1	UNK0	0.000	
26	  C6	6.090	2.980	20.360	C.2	1	UNK0	0.000	
27	  C7	5.750	2.060	19.270	C.2	1	UNK0	0.000	
28	  C8	7.020	1.250	18.770	C.2	1	UNK0	0.000	
29	  C9	8.230	1.570	19.540	C.2	1	UNK0	0.000	
30	  S1	7.890	2.850	20.850	S.3	1	UNK0	0.000	
31	 C10	9.410	0.900	19.220	C.2	1	UNK0	0.000	
32	 C11	9.430	-0.010	18.170	C.2	1	UNK0	0.000	
33	 C12	8.300	-0.330	17.410	C.2	1	UNK0	0.000	
34	  N3	7.070	0.230	17.650	N.pl3	1	UNK0	0.000	
35	  O2	6.030	0.020	16.970	O.2	1	UNK0	0.000	
36	  S2	6.430	9.380	22.710	S.o2	1	UNK0	0.000	
37	  O3	5.310	9.890	23.480	O.2	1	UNK0	0.000	
38	  O4	7.010	10.180	21.640	O.2	1	UNK0	0.000	
39	  N4	7.590	8.320	25.160	N.2	1	UNK0	0.000	
40	 C13	9.020	8.080	25.840	C.2	1	UNK0	0.000	
41	 C14	9.350	7.570	27.040	C.2	1	UNK0	0.000	
42	 C15	10.630	7.440	27.470	C.2	1	UNK0	0.000	
43	 C16	11.680	7.810	26.700	C.2	1	UNK0	0.000	
44	 Cl1	13.290	7.400	27.130	Cl	1	UNK0	0.000	
45	 C17	11.510	8.520	25.360	C.3	1	UNK0	0.000	
46	 C18	10.070	8.590	24.910	C.2	1	UNK0	0.000	
47	 C19	9.500	9.150	23.650	C.2	1	UNK0	0.000	
48	 C20	7.770	8.960	23.880	C.2	1	UNK0	0.000	
@<TRIPOS>BOND
1 18 19 1
2 18 25 1
3 18 36 1
4 11 19 1
5 12 19 1
6 19 20 1
7 9 20 1
8 17 20 1
9 20 21 1
10 21 22 1
11 21 24 1
12 22 23 2
13 22 26 1
14 15 24 1
15 16 24 1
16 24 25 1
17 2 25 1
18 4 25 1
19 26 27 2
20 26 30 1
21 6 27 1
22 27 28 1
23 28 29 1
24 28 34 2
25 29 30 1
26 29 31 2
27 1 31 1
28 31 32 1
29 7 32 1
30 32 33 2
31 10 33 1
32 33 34 1
33 34 35 1
34 36 37 2
35 36 38 2
36 36 48 1
37 39 40 1
38 39 48 2
39 40 41 2
40 40 46 1
41 5 41 1
42 41 42 1
43 13 42 1
44 42 43 2
45 43 44 1
46 43 45 1
47 8 45 1
48 14 45 1
49 45 46 1
50 46 47 2
51 3 47 1
52 47 48 1
@<TRIPOS>SUBSTRUCTURE
1	UNK0	1	GROUP	1 ****	UNK
