# created with PyMOL 2.5.0
@<TRIPOS>MOLECULE
MOL
31 35 1                 
SMALL
USER_CHARGES
@<TRIPOS>ATOM
1	  N1	5.415	4.698	22.314	N.3	1	UNK0	0.000	
2	  C1	6.531	4.366	21.371	C.3	1	UNK0	0.000	
3	  C2	6.149	4.555	19.881	C.3	1	UNK0	0.000	
4	  N2	4.943	3.812	19.578	N.pl3	1	UNK0	0.000	
5	  C3	4.849	2.564	18.983	C.2	1	UNK0	0.000	
6	  O1	3.753	2.044	18.907	O.2	1	UNK0	0.000	
7	  C4	3.825	4.302	20.370	C.3	1	UNK0	0.000	
8	  C5	4.107	4.102	21.870	C.3	1	UNK0	0.000	
9	  C6	6.031	1.907	18.453	C.2	1	UNK0	0.000	
10	  C7	6.060	1.053	17.253	C.2	1	UNK0	0.000	
11	  C8	7.474	0.373	17.061	C.2	1	UNK0	0.000	
12	  C9	8.429	0.723	18.110	C.2	1	UNK0	0.000	
13	  S1	7.668	1.842	19.383	S.3	1	UNK0	0.000	
14	 C10	9.723	0.203	18.028	C.2	1	UNK0	0.000	
15	 C11	10.082	-0.637	16.965	C.2	1	UNK0	0.000	
16	 C12	9.168	-1.016	15.966	C.2	1	UNK0	0.000	
17	  N3	7.875	-0.587	15.960	N.pl3	1	UNK0	0.000	
18	  O2	7.031	-0.885	15.059	O.2	1	UNK0	0.000	
19	  S2	5.335	6.313	22.826	S.o2	1	UNK0	0.000	
20	  O3	4.119	6.462	23.593	O.2	1	UNK0	0.000	
21	  O4	5.570	7.132	21.644	O.2	1	UNK0	0.000	
22	  N4	6.753	6.345	25.376	N.2	1	UNK0	0.000	
23	 C13	8.153	6.814	25.991	C.2	1	UNK0	0.000	
24	 C14	8.602	6.773	27.258	C.2	1	UNK0	0.000	
25	 C15	9.842	7.198	27.625	C.2	1	UNK0	0.000	
26	 C16	10.701	7.724	26.723	C.2	1	UNK0	0.000	
27	 Cl1	12.260	8.273	27.196	Cl	1	UNK0	0.000	
28	 C17	10.369	7.864	25.243	C.3	1	UNK0	0.000	
29	 C18	8.991	7.358	24.889	C.2	1	UNK0	0.000	
30	 C19	8.302	7.297	23.564	C.2	1	UNK0	0.000	
31	 C20	6.751	6.599	23.953	C.2	1	UNK0	0.000	
@<TRIPOS>BOND
1 1 2 1
2 1 8 1
3 1 19 1
4 2 3 1
5 3 4 1
6 4 5 1
7 4 7 1
8 5 6 2
9 5 9 1
10 7 8 1
11 9 10 2
12 9 13 1
13 10 11 1
14 11 12 1
15 11 17 2
16 12 13 1
17 12 14 2
18 14 15 1
19 15 16 2
20 16 17 1
21 17 18 1
22 19 20 2
23 19 21 2
24 19 31 1
25 22 23 1
26 22 31 2
27 23 24 2
28 23 29 1
29 24 25 1
30 25 26 2
31 26 27 1
32 26 28 1
33 28 29 1
34 29 30 2
35 30 31 1
@<TRIPOS>SUBSTRUCTURE
1	UNK0	1	GROUP	1 ****	UNK
