# created with PyMOL 2.5.0
@<TRIPOS>MOLECULE
MOL
31 35 1                 
SMALL
USER_CHARGES
@<TRIPOS>ATOM
1	  N1	4.405	7.116	22.235	N.3	1	UNK0	0.000	
2	  C1	5.392	6.141	21.642	C.3	1	UNK0	0.000	
3	  C2	5.207	5.899	20.137	C.3	1	UNK0	0.000	
4	  N2	3.832	5.610	19.751	N.pl3	1	UNK0	0.000	
5	  C3	3.517	5.120	18.503	C.2	1	UNK0	0.000	
6	  O1	2.523	5.526	17.934	O.2	1	UNK0	0.000	
7	  C4	2.854	6.536	20.311	C.3	1	UNK0	0.000	
8	  C5	3.026	6.737	21.834	C.3	1	UNK0	0.000	
9	  C6	4.362	4.101	17.917	C.2	1	UNK0	0.000	
10	  C7	4.558	3.859	16.482	C.2	1	UNK0	0.000	
11	  C8	5.348	2.505	16.220	C.2	1	UNK0	0.000	
12	  C9	5.659	1.782	17.463	C.2	1	UNK0	0.000	
13	  S1	5.083	2.720	18.965	S.3	1	UNK0	0.000	
14	 C10	6.274	0.537	17.366	C.2	1	UNK0	0.000	
15	 C11	6.547	-0.009	16.105	C.2	1	UNK0	0.000	
16	 C12	6.254	0.660	14.899	C.2	1	UNK0	0.000	
17	  N3	5.688	1.900	14.875	N.pl3	1	UNK0	0.000	
18	  O2	5.608	2.631	13.843	O.2	1	UNK0	0.000	
19	  S2	4.768	8.756	21.993	S.o2	1	UNK0	0.000	
20	  O3	3.823	9.517	22.795	O.2	1	UNK0	0.000	
21	  O4	4.833	8.941	20.561	O.2	1	UNK0	0.000	
22	  N4	6.978	8.616	23.888	N.2	1	UNK0	0.000	
23	 C13	8.493	9.122	24.036	C.2	1	UNK0	0.000	
24	 C14	9.405	8.880	24.994	C.2	1	UNK0	0.000	
25	 C15	10.640	9.426	24.994	C.2	1	UNK0	0.000	
26	 C16	11.091	10.163	23.962	C.2	1	UNK0	0.000	
27	 Cl1	12.725	10.667	23.869	Cl	1	UNK0	0.000	
28	 C17	10.232	10.478	22.737	C.3	1	UNK0	0.000	
29	 C18	8.836	9.924	22.827	C.2	1	UNK0	0.000	
30	 C19	7.717	10.016	21.850	C.2	1	UNK0	0.000	
31	 C20	6.446	9.098	22.632	C.2	1	UNK0	0.000	
@<TRIPOS>BOND
1 1 2 1
2 1 8 1
3 1 19 1
4 2 3 1
5 3 4 1
6 4 5 1
7 4 7 1
8 5 6 2
9 5 9 1
10 7 8 1
11 9 10 2
12 9 13 1
13 10 11 1
14 11 12 1
15 11 17 2
16 12 13 1
17 12 14 2
18 14 15 1
19 15 16 2
20 16 17 1
21 17 18 1
22 19 20 2
23 19 21 2
24 19 31 1
25 22 23 1
26 22 31 2
27 23 24 2
28 23 29 1
29 24 25 1
30 25 26 2
31 26 27 1
32 26 28 1
33 28 29 1
34 29 30 2
35 30 31 1
@<TRIPOS>SUBSTRUCTURE
1	UNK0	1	GROUP	1 ****	UNK
