# created with PyMOL 2.5.0
@<TRIPOS>MOLECULE
MOL
48 52 1                 
SMALL
USER_CHARGES
@<TRIPOS>ATOM
1	 H10	11.740	7.460	18.860	 H	1	UNK0	0.000	
2	 H07	3.750	6.920	22.800	 H	1	UNK0	0.000	
3	 H17	8.400	10.610	22.550	 H	1	UNK0	0.000	
4	 H08	5.500	6.710	22.900	 H	1	UNK0	0.000	
5	 H13	8.300	7.590	27.290	 H	1	UNK0	0.000	
6	 H09	7.660	3.790	17.280	 H	1	UNK0	0.000	
7	 H11	13.120	6.740	16.950	 H	1	UNK0	0.000	
8	 H15	11.050	9.510	24.030	 H	1	UNK0	0.000	
9	 H03	6.540	7.400	18.810	 H	1	UNK0	0.000	
10	 H12	12.250	5.020	15.290	 H	1	UNK0	0.000	
11	 H01	6.940	8.140	21.200	 H	1	UNK0	0.000	
12	 H02	6.070	9.350	20.230	 H	1	UNK0	0.000	
13	 H14	10.570	8.080	27.870	 H	1	UNK0	0.000	
14	 H16	10.590	10.970	24.890	 H	1	UNK0	0.000	
15	 H06	3.660	5.990	20.560	 H	1	UNK0	0.000	
16	 H05	4.580	4.870	21.550	 H	1	UNK0	0.000	
17	 H04	4.810	7.540	19.090	 H	1	UNK0	0.000	
18	  N1	4.890	8.330	21.680	N.3	1	UNK0	0.000	
19	  C1	6.000	8.360	20.690	C.3	1	UNK0	0.000	
20	  C2	5.770	7.330	19.580	C.3	1	UNK0	0.000	
21	  N2	5.660	5.990	20.120	N.pl3	1	UNK0	0.000	
22	  C3	6.440	4.910	19.760	C.2	1	UNK0	0.000	
23	  O1	6.080	3.770	20.020	O.2	1	UNK0	0.000	
24	  C4	4.600	5.870	21.110	C.3	1	UNK0	0.000	
25	  C5	4.680	6.940	22.220	C.3	1	UNK0	0.000	
26	  C6	7.660	5.200	19.050	C.2	1	UNK0	0.000	
27	  C7	8.190	4.560	17.830	C.2	1	UNK0	0.000	
28	  C8	9.610	5.140	17.430	C.2	1	UNK0	0.000	
29	  C9	10.100	6.150	18.380	C.2	1	UNK0	0.000	
30	  S1	8.880	6.440	19.760	S.3	1	UNK0	0.000	
31	 C10	11.350	6.720	18.170	C.2	1	UNK0	0.000	
32	 C11	12.120	6.310	17.070	C.2	1	UNK0	0.000	
33	 C12	11.680	5.360	16.140	C.2	1	UNK0	0.000	
34	  N3	10.460	4.760	16.240	N.pl3	1	UNK0	0.000	
35	  O2	10.020	3.890	15.430	O.2	1	UNK0	0.000	
36	  S2	5.030	9.530	22.860	S.o2	1	UNK0	0.000	
37	  O3	3.900	9.400	23.770	O.2	1	UNK0	0.000	
38	  O4	5.200	10.770	22.140	O.2	1	UNK0	0.000	
39	  N4	6.740	8.610	25.060	N.2	1	UNK0	0.000	
40	 C13	8.240	8.770	25.570	C.2	1	UNK0	0.000	
41	 C14	8.880	8.240	26.630	C.2	1	UNK0	0.000	
42	 C15	10.170	8.490	26.950	C.2	1	UNK0	0.000	
43	 C16	10.940	9.290	26.170	C.2	1	UNK0	0.000	
44	 Cl1	12.520	9.710	26.670	Cl	1	UNK0	0.000	
45	 C17	10.450	9.890	24.860	C.3	1	UNK0	0.000	
46	 C18	8.990	9.600	24.580	C.2	1	UNK0	0.000	
47	 C19	8.140	10.010	23.420	C.2	1	UNK0	0.000	
48	 C20	6.590	9.290	23.800	C.2	1	UNK0	0.000	
@<TRIPOS>BOND
1 18 19 1
2 18 25 1
3 18 36 1
4 11 19 1
5 12 19 1
6 19 20 1
7 9 20 1
8 17 20 1
9 20 21 1
10 21 22 1
11 21 24 1
12 22 23 2
13 22 26 1
14 15 24 1
15 16 24 1
16 24 25 1
17 2 25 1
18 4 25 1
19 26 27 2
20 26 30 1
21 6 27 1
22 27 28 1
23 28 29 1
24 28 34 2
25 29 30 1
26 29 31 2
27 1 31 1
28 31 32 1
29 7 32 1
30 32 33 2
31 10 33 1
32 33 34 1
33 34 35 1
34 36 37 2
35 36 38 2
36 36 48 1
37 39 40 1
38 39 48 2
39 40 41 2
40 40 46 1
41 5 41 1
42 41 42 1
43 13 42 1
44 42 43 2
45 43 44 1
46 43 45 1
47 8 45 1
48 14 45 1
49 45 46 1
50 46 47 2
51 3 47 1
52 47 48 1
@<TRIPOS>SUBSTRUCTURE
1	UNK0	1	GROUP	1 ****	UNK
