# created with PyMOL 2.5.0
@<TRIPOS>MOLECULE
MOL
31 35 1                 
SMALL
USER_CHARGES
@<TRIPOS>ATOM
1	  N1	2.786	7.574	20.587	N.3	1	UNK0	0.000	
2	  C1	3.229	6.233	20.113	C.3	1	UNK0	0.000	
3	  C2	2.103	5.195	20.220	C.3	1	UNK0	0.000	
4	  N2	1.604	5.107	21.592	N.pl3	1	UNK0	0.000	
5	  C3	2.220	4.414	22.597	C.2	1	UNK0	0.000	
6	  O1	1.945	4.665	23.767	O.2	1	UNK0	0.000	
7	  C4	1.000	6.379	21.945	C.3	1	UNK0	0.000	
8	  C5	2.046	7.514	21.912	C.3	1	UNK0	0.000	
9	  C6	3.417	3.668	22.275	C.2	1	UNK0	0.000	
10	  C7	3.722	2.714	21.203	C.2	1	UNK0	0.000	
11	  C8	5.238	2.282	21.229	C.2	1	UNK0	0.000	
12	  C9	5.998	2.878	22.342	C.2	1	UNK0	0.000	
13	  S1	4.911	3.994	23.364	S.3	1	UNK0	0.000	
14	 C10	7.334	2.551	22.472	C.2	1	UNK0	0.000	
15	 C11	7.929	1.665	21.570	C.2	1	UNK0	0.000	
16	 C12	7.258	1.130	20.469	C.2	1	UNK0	0.000	
17	  N3	5.933	1.371	20.236	N.pl3	1	UNK0	0.000	
18	  O2	5.309	1.105	19.162	O.2	1	UNK0	0.000	
19	  S2	4.000	8.771	20.525	S.o2	1	UNK0	0.000	
20	  O3	3.418	9.989	21.046	O.2	1	UNK0	0.000	
21	  O4	4.572	8.679	19.197	O.2	1	UNK0	0.000	
22	  N4	5.149	7.928	23.062	N.2	1	UNK0	0.000	
23	 C13	6.587	7.675	23.744	C.2	1	UNK0	0.000	
24	 C14	6.899	7.450	25.025	C.2	1	UNK0	0.000	
25	 C15	8.151	7.571	25.520	C.2	1	UNK0	0.000	
26	 C16	9.202	7.859	24.711	C.2	1	UNK0	0.000	
27	 Cl1	10.721	8.287	25.393	Cl	1	UNK0	0.000	
28	 C17	9.070	7.943	23.203	C.3	1	UNK0	0.000	
29	 C18	7.637	7.930	22.713	C.2	1	UNK0	0.000	
30	 C19	7.073	8.284	21.388	C.2	1	UNK0	0.000	
31	 C20	5.345	8.273	21.670	C.2	1	UNK0	0.000	
@<TRIPOS>BOND
1 1 2 1
2 1 8 1
3 1 19 1
4 2 3 1
5 3 4 1
6 4 5 1
7 4 7 1
8 5 6 2
9 5 9 1
10 7 8 1
11 9 10 2
12 9 13 1
13 10 11 1
14 11 12 1
15 11 17 2
16 12 13 1
17 12 14 2
18 14 15 1
19 15 16 2
20 16 17 1
21 17 18 1
22 19 20 2
23 19 21 2
24 19 31 1
25 22 23 1
26 22 31 2
27 23 24 2
28 23 29 1
29 24 25 1
30 25 26 2
31 26 27 1
32 26 28 1
33 28 29 1
34 29 30 2
35 30 31 1
@<TRIPOS>SUBSTRUCTURE
1	UNK0	1	GROUP	1 ****	UNK
