# created with PyMOL 2.5.0
@<TRIPOS>MOLECULE
MOL
48 52 1                 
SMALL
USER_CHARGES
@<TRIPOS>ATOM
1	 H10	7.030	0.370	18.920	 H	1	UNK0	0.000	
2	 H07	2.470	7.860	22.460	 H	1	UNK0	0.000	
3	 H17	7.700	11.060	20.970	 H	1	UNK0	0.000	
4	 H08	3.050	6.220	22.670	 H	1	UNK0	0.000	
5	 H13	9.230	9.150	26.030	 H	1	UNK0	0.000	
6	 H09	4.490	4.650	16.120	 H	1	UNK0	0.000	
7	 H11	7.580	-0.690	16.760	 H	1	UNK0	0.000	
8	 H15	10.770	10.810	21.960	 H	1	UNK0	0.000	
9	 H03	6.160	5.540	20.180	 H	1	UNK0	0.000	
10	 H12	7.010	0.460	14.560	 H	1	UNK0	0.000	
11	 H01	5.490	5.720	22.540	 H	1	UNK0	0.000	
12	 H02	6.620	7.000	22.170	 H	1	UNK0	0.000	
13	 H14	11.390	10.180	25.960	 H	1	UNK0	0.000	
14	 H16	10.150	12.330	22.660	 H	1	UNK0	0.000	
15	 H06	3.150	7.790	20.040	 H	1	UNK0	0.000	
16	 H05	2.080	6.450	20.440	 H	1	UNK0	0.000	
17	 H04	5.710	7.200	19.860	 H	1	UNK0	0.000	
18	  N1	4.590	7.610	22.500	N.3	1	UNK0	0.000	
19	  C1	5.620	6.650	21.960	C.3	1	UNK0	0.000	
20	  C2	5.450	6.320	20.470	C.3	1	UNK0	0.000	
21	  N2	4.090	5.950	20.100	N.pl3	1	UNK0	0.000	
22	  C3	3.800	5.380	18.880	C.2	1	UNK0	0.000	
23	  O1	2.790	5.710	18.290	O.2	1	UNK0	0.000	
24	  C4	3.070	6.860	20.610	C.3	1	UNK0	0.000	
25	  C5	3.230	7.150	22.120	C.3	1	UNK0	0.000	
26	  C6	4.690	4.370	18.350	C.2	1	UNK0	0.000	
27	  C7	4.900	4.060	16.930	C.2	1	UNK0	0.000	
28	  C8	5.750	2.730	16.740	C.2	1	UNK0	0.000	
29	  C9	6.090	2.090	18.020	C.2	1	UNK0	0.000	
30	  S1	5.470	3.080	19.470	S.3	1	UNK0	0.000	
31	 C10	6.760	0.870	17.990	C.2	1	UNK0	0.000	
32	 C11	7.060	0.270	16.760	C.2	1	UNK0	0.000	
33	 C12	6.740	0.860	15.520	C.2	1	UNK0	0.000	
34	  N3	6.120	2.070	15.430	N.pl3	1	UNK0	0.000	
35	  O2	6.010	2.740	14.360	O.2	1	UNK0	0.000	
36	  S2	4.880	9.250	22.170	S.o2	1	UNK0	0.000	
37	  O3	3.900	10.010	22.930	O.2	1	UNK0	0.000	
38	  O4	4.940	9.360	20.730	O.2	1	UNK0	0.000	
39	  N4	7.090	9.310	24.070	N.2	1	UNK0	0.000	
40	 C13	8.580	9.890	24.190	C.2	1	UNK0	0.000	
41	 C14	9.500	9.740	25.160	C.2	1	UNK0	0.000	
42	 C15	10.710	10.340	25.130	C.2	1	UNK0	0.000	
43	 C16	11.130	11.040	24.060	C.2	1	UNK0	0.000	
44	 Cl1	12.740	11.610	23.940	Cl	1	UNK0	0.000	
45	 C17	10.260	11.250	22.820	C.3	1	UNK0	0.000	
46	 C18	8.890	10.640	22.940	C.2	1	UNK0	0.000	
47	 C19	7.770	10.630	21.960	C.2	1	UNK0	0.000	
48	 C20	6.540	9.700	22.790	C.2	1	UNK0	0.000	
@<TRIPOS>BOND
1 18 19 1
2 18 25 1
3 18 36 1
4 11 19 1
5 12 19 1
6 19 20 1
7 9 20 1
8 17 20 1
9 20 21 1
10 21 22 1
11 21 24 1
12 22 23 2
13 22 26 1
14 15 24 1
15 16 24 1
16 24 25 1
17 2 25 1
18 4 25 1
19 26 27 2
20 26 30 1
21 6 27 1
22 27 28 1
23 28 29 1
24 28 34 2
25 29 30 1
26 29 31 2
27 1 31 1
28 31 32 1
29 7 32 1
30 32 33 2
31 10 33 1
32 33 34 1
33 34 35 1
34 36 37 2
35 36 38 2
36 36 48 1
37 39 40 1
38 39 48 2
39 40 41 2
40 40 46 1
41 5 41 1
42 41 42 1
43 13 42 1
44 42 43 2
45 43 44 1
46 43 45 1
47 8 45 1
48 14 45 1
49 45 46 1
50 46 47 2
51 3 47 1
52 47 48 1
@<TRIPOS>SUBSTRUCTURE
1	UNK0	1	GROUP	1 ****	UNK
