# created with PyMOL 2.5.0
@<TRIPOS>MOLECULE
MOL
48 52 1                 
SMALL
USER_CHARGES
@<TRIPOS>ATOM
1	 H10	10.290	1.190	19.290	 H	1	UNK0	0.000	
2	 H07	2.440	5.540	22.020	 H	1	UNK0	0.000	
3	 H17	6.960	9.110	20.440	 H	1	UNK0	0.000	
4	 H08	4.170	5.140	22.230	 H	1	UNK0	0.000	
5	 H13	6.830	7.270	25.750	 H	1	UNK0	0.000	
6	 H09	4.840	0.070	18.060	 H	1	UNK0	0.000	
7	 H11	10.970	-0.290	17.440	 H	1	UNK0	0.000	
8	 H15	9.500	8.550	22.100	 H	1	UNK0	0.000	
9	 H03	5.540	3.640	18.720	 H	1	UNK0	0.000	
10	 H12	9.180	-1.440	15.980	 H	1	UNK0	0.000	
11	 H01	5.740	5.470	20.370	 H	1	UNK0	0.000	
12	 H02	5.160	6.110	18.810	 H	1	UNK0	0.000	
13	 H14	9.130	7.900	26.170	 H	1	UNK0	0.000	
14	 H16	8.930	10.140	22.700	 H	1	UNK0	0.000	
15	 H06	2.190	3.730	20.360	 H	1	UNK0	0.000	
16	 H05	2.810	3.110	21.900	 H	1	UNK0	0.000	
17	 H04	3.850	4.050	18.440	 H	1	UNK0	0.000	
18	  N1	3.700	6.040	20.370	N.3	1	UNK0	0.000	
19	  C1	4.900	5.480	19.670	C.3	1	UNK0	0.000	
20	  C2	4.640	4.040	19.190	C.3	1	UNK0	0.000	
21	  N2	4.170	3.180	20.280	N.pl3	1	UNK0	0.000	
22	  C3	4.530	1.860	20.470	C.2	1	UNK0	0.000	
23	  O1	3.950	1.190	21.290	O.2	1	UNK0	0.000	
24	  C4	3.060	3.730	21.030	C.3	1	UNK0	0.000	
25	  C5	3.340	5.160	21.520	C.3	1	UNK0	0.000	
26	  C6	5.660	1.400	19.710	C.2	1	UNK0	0.000	
27	  C7	5.700	0.510	18.540	C.2	1	UNK0	0.000	
28	  C8	7.190	0.220	18.110	C.2	1	UNK0	0.000	
29	  C9	8.190	0.900	18.950	C.2	1	UNK0	0.000	
30	  S1	7.370	1.910	20.250	S.3	1	UNK0	0.000	
31	 C10	9.540	0.700	18.680	C.2	1	UNK0	0.000	
32	 C11	9.910	-0.150	17.630	C.2	1	UNK0	0.000	
33	 C12	8.970	-0.800	16.820	C.2	1	UNK0	0.000	
34	  N3	7.630	-0.670	17.020	N.pl3	1	UNK0	0.000	
35	  O2	6.730	-1.260	16.350	O.2	1	UNK0	0.000	
36	  S2	3.830	7.680	20.790	S.o2	1	UNK0	0.000	
37	  O3	2.670	8.020	21.590	O.2	1	UNK0	0.000	
38	  O4	4.140	8.410	19.580	O.2	1	UNK0	0.000	
39	  N4	5.370	7.520	23.250	N.2	1	UNK0	0.000	
40	 C13	6.800	7.960	23.790	C.2	1	UNK0	0.000	
41	 C14	7.400	7.770	24.980	C.2	1	UNK0	0.000	
42	 C15	8.690	8.110	25.190	C.2	1	UNK0	0.000	
43	 C16	9.440	8.710	24.240	C.2	1	UNK0	0.000	
44	 Cl1	11.060	9.200	24.570	Cl	1	UNK0	0.000	
45	 C17	8.900	9.070	22.870	C.3	1	UNK0	0.000	
46	 C18	7.520	8.640	22.670	C.2	1	UNK0	0.000	
47	 C19	6.710	8.710	21.420	C.2	1	UNK0	0.000	
48	 C20	5.300	7.890	21.850	C.2	1	UNK0	0.000	
@<TRIPOS>BOND
1 18 19 1
2 18 25 1
3 18 36 1
4 11 19 1
5 12 19 1
6 19 20 1
7 9 20 1
8 17 20 1
9 20 21 1
10 21 22 1
11 21 24 1
12 22 23 2
13 22 26 1
14 15 24 1
15 16 24 1
16 24 25 1
17 2 25 1
18 4 25 1
19 26 27 2
20 26 30 1
21 6 27 1
22 27 28 1
23 28 29 1
24 28 34 2
25 29 30 1
26 29 31 2
27 1 31 1
28 31 32 1
29 7 32 1
30 32 33 2
31 10 33 1
32 33 34 1
33 34 35 1
34 36 37 2
35 36 38 2
36 36 48 1
37 39 40 1
38 39 48 2
39 40 41 2
40 40 46 1
41 5 41 1
42 41 42 1
43 13 42 1
44 42 43 2
45 43 44 1
46 43 45 1
47 8 45 1
48 14 45 1
49 45 46 1
50 46 47 2
51 3 47 1
52 47 48 1
@<TRIPOS>SUBSTRUCTURE
1	UNK0	1	GROUP	1 ****	UNK
