# created with PyMOL 2.5.0
@<TRIPOS>MOLECULE
MOL
48 52 1                 
SMALL
USER_CHARGES
@<TRIPOS>ATOM
1	 H10	9.380	1.620	18.580	 H	1	UNK0	0.000	
2	 H07	3.510	3.950	25.480	 H	1	UNK0	0.000	
3	 H17	6.140	6.680	21.580	 H	1	UNK0	0.000	
4	 H08	4.940	3.730	24.440	 H	1	UNK0	0.000	
5	 H13	8.840	8.870	25.960	 H	1	UNK0	0.000	
6	 H09	3.740	1.520	19.400	 H	1	UNK0	0.000	
7	 H11	9.020	1.570	16.140	 H	1	UNK0	0.000	
8	 H15	9.440	7.130	21.690	 H	1	UNK0	0.000	
9	 H03	3.450	3.360	20.600	 H	1	UNK0	0.000	
10	 H12	6.660	1.500	15.170	 H	1	UNK0	0.000	
11	 H01	4.850	4.790	22.040	 H	1	UNK0	0.000	
12	 H02	3.350	5.650	21.590	 H	1	UNK0	0.000	
13	 H14	10.680	9.710	24.630	 H	1	UNK0	0.000	
14	 H16	8.570	8.600	21.230	 H	1	UNK0	0.000	
15	 H06	2.120	2.670	23.850	 H	1	UNK0	0.000	
16	 H05	3.430	1.680	24.460	 H	1	UNK0	0.000	
17	 H04	2.080	3.530	21.700	 H	1	UNK0	0.000	
18	  N1	3.470	5.020	23.630	N.3	1	UNK0	0.000	
19	  C1	3.760	4.820	22.170	C.3	1	UNK0	0.000	
20	  C2	3.170	3.490	21.650	C.3	1	UNK0	0.000	
21	  N2	3.600	2.360	22.460	N.pl3	1	UNK0	0.000	
22	  C3	4.790	1.690	22.280	C.2	1	UNK0	0.000	
23	  O1	5.370	1.320	23.280	O.2	1	UNK0	0.000	
24	  C4	3.200	2.560	23.850	C.3	1	UNK0	0.000	
25	  C5	3.860	3.820	24.440	C.3	1	UNK0	0.000	
26	  C6	5.390	1.640	20.970	C.2	1	UNK0	0.000	
27	  C7	4.800	1.560	19.610	C.2	1	UNK0	0.000	
28	  C8	5.930	1.540	18.500	C.2	1	UNK0	0.000	
29	  C9	7.290	1.580	19.060	C.2	1	UNK0	0.000	
30	  S1	7.260	1.630	20.920	S.3	1	UNK0	0.000	
31	 C10	8.370	1.580	18.190	C.2	1	UNK0	0.000	
32	 C11	8.160	1.540	16.800	C.2	1	UNK0	0.000	
33	 C12	6.870	1.510	16.240	C.2	1	UNK0	0.000	
34	  N3	5.740	1.490	17.000	N.pl3	1	UNK0	0.000	
35	  O2	4.560	1.550	16.540	O.2	1	UNK0	0.000	
36	  S2	3.820	6.550	24.280	S.o2	1	UNK0	0.000	
37	  O3	3.550	6.470	25.700	O.2	1	UNK0	0.000	
38	  O4	3.150	7.490	23.410	O.2	1	UNK0	0.000	
39	  N4	6.460	7.490	25.070	N.2	1	UNK0	0.000	
40	 C13	7.850	7.930	24.400	C.2	1	UNK0	0.000	
41	 C14	8.880	8.640	24.910	C.2	1	UNK0	0.000	
42	 C15	9.900	9.120	24.150	C.2	1	UNK0	0.000	
43	 C16	9.980	8.860	22.820	C.2	1	UNK0	0.000	
44	 Cl1	11.290	9.470	21.870	Cl	1	UNK0	0.000	
45	 C17	8.950	8.020	22.080	C.3	1	UNK0	0.000	
46	 C18	7.790	7.600	22.950	C.2	1	UNK0	0.000	
47	 C19	6.500	6.970	22.550	C.2	1	UNK0	0.000	
48	 C20	5.610	6.900	24.070	C.2	1	UNK0	0.000	
@<TRIPOS>BOND
1 18 19 1
2 18 25 1
3 18 36 1
4 11 19 1
5 12 19 1
6 19 20 1
7 9 20 1
8 17 20 1
9 20 21 1
10 21 22 1
11 21 24 1
12 22 23 2
13 22 26 1
14 15 24 1
15 16 24 1
16 24 25 1
17 2 25 1
18 4 25 1
19 26 27 2
20 26 30 1
21 6 27 1
22 27 28 1
23 28 29 1
24 28 34 2
25 29 30 1
26 29 31 2
27 1 31 1
28 31 32 1
29 7 32 1
30 32 33 2
31 10 33 1
32 33 34 1
33 34 35 1
34 36 37 2
35 36 38 2
36 36 48 1
37 39 40 1
38 39 48 2
39 40 41 2
40 40 46 1
41 5 41 1
42 41 42 1
43 13 42 1
44 42 43 2
45 43 44 1
46 43 45 1
47 8 45 1
48 14 45 1
49 45 46 1
50 46 47 2
51 3 47 1
52 47 48 1
@<TRIPOS>SUBSTRUCTURE
1	UNK0	1	GROUP	1 ****	UNK
