# created with PyMOL 2.5.0
@<TRIPOS>MOLECULE
MOL
48 52 1                 
SMALL
USER_CHARGES
@<TRIPOS>ATOM
1	 H10	10.850	4.910	17.800	 H	1	UNK0	0.000	
2	 H07	3.220	6.030	22.090	 H	1	UNK0	0.000	
3	 H17	6.070	11.200	21.900	 H	1	UNK0	0.000	
4	 H08	4.980	5.830	22.180	 H	1	UNK0	0.000	
5	 H13	8.420	7.010	24.780	 H	1	UNK0	0.000	
6	 H09	7.310	0.630	19.140	 H	1	UNK0	0.000	
7	 H11	12.140	3.360	16.360	 H	1	UNK0	0.000	
8	 H15	8.420	11.800	23.780	 H	1	UNK0	0.000	
9	 H03	5.930	4.480	18.320	 H	1	UNK0	0.000	
10	 H12	11.530	0.920	16.220	 H	1	UNK0	0.000	
11	 H01	6.340	6.350	20.020	 H	1	UNK0	0.000	
12	 H02	5.430	6.890	18.590	 H	1	UNK0	0.000	
13	 H14	9.940	8.480	25.980	 H	1	UNK0	0.000	
14	 H16	7.190	11.000	24.850	 H	1	UNK0	0.000	
15	 H06	3.070	4.160	20.500	 H	1	UNK0	0.000	
16	 H05	3.950	3.630	21.940	 H	1	UNK0	0.000	
17	 H04	4.220	4.740	18.520	 H	1	UNK0	0.000	
18	  N1	4.290	6.700	20.370	N.3	1	UNK0	0.000	
19	  C1	5.400	6.260	19.480	C.3	1	UNK0	0.000	
20	  C2	5.180	4.810	19.030	C.3	1	UNK0	0.000	
21	  N2	5.080	3.910	20.180	N.pl3	1	UNK0	0.000	
22	  C3	5.940	2.900	20.510	C.2	1	UNK0	0.000	
23	  O1	5.620	2.070	21.340	O.2	1	UNK0	0.000	
24	  C4	3.990	4.290	21.070	C.3	1	UNK0	0.000	
25	  C5	4.110	5.750	21.520	C.3	1	UNK0	0.000	
26	  C6	7.170	2.810	19.750	C.2	1	UNK0	0.000	
27	  C7	7.760	1.620	19.110	C.2	1	UNK0	0.000	
28	  C8	9.090	1.980	18.330	C.2	1	UNK0	0.000	
29	  C9	9.460	3.400	18.440	C.2	1	UNK0	0.000	
30	  S1	8.260	4.320	19.510	S.3	1	UNK0	0.000	
31	 C10	10.560	3.870	17.740	C.2	1	UNK0	0.000	
32	 C11	11.290	2.980	16.930	C.2	1	UNK0	0.000	
33	 C12	10.970	1.630	16.810	C.2	1	UNK0	0.000	
34	  N3	9.920	1.050	17.470	N.pl3	1	UNK0	0.000	
35	  O2	9.660	-0.200	17.500	O.2	1	UNK0	0.000	
36	  S2	4.370	8.350	20.800	S.o2	1	UNK0	0.000	
37	  O3	3.240	8.600	21.670	O.2	1	UNK0	0.000	
38	  O4	4.540	9.080	19.560	O.2	1	UNK0	0.000	
39	  N4	6.570	7.710	22.620	N.2	1	UNK0	0.000	
40	 C13	7.630	8.490	23.540	C.2	1	UNK0	0.000	
41	 C14	8.420	8.070	24.550	C.2	1	UNK0	0.000	
42	 C15	9.200	8.900	25.290	C.2	1	UNK0	0.000	
43	 C16	9.170	10.230	25.100	C.2	1	UNK0	0.000	
44	 Cl1	10.420	11.250	25.670	Cl	1	UNK0	0.000	
45	 C17	8.090	10.860	24.240	C.3	1	UNK0	0.000	
46	 C18	7.510	9.940	23.240	C.2	1	UNK0	0.000	
47	 C19	6.500	10.250	22.190	C.2	1	UNK0	0.000	
48	 C20	5.870	8.670	21.790	C.2	1	UNK0	0.000	
@<TRIPOS>BOND
1 18 19 1
2 18 25 1
3 18 36 1
4 11 19 1
5 12 19 1
6 19 20 1
7 9 20 1
8 17 20 1
9 20 21 1
10 21 22 1
11 21 24 1
12 22 23 2
13 22 26 1
14 15 24 1
15 16 24 1
16 24 25 1
17 2 25 1
18 4 25 1
19 26 27 2
20 26 30 1
21 6 27 1
22 27 28 1
23 28 29 1
24 28 34 2
25 29 30 1
26 29 31 2
27 1 31 1
28 31 32 1
29 7 32 1
30 32 33 2
31 10 33 1
32 33 34 1
33 34 35 1
34 36 37 2
35 36 38 2
36 36 48 1
37 39 40 1
38 39 48 2
39 40 41 2
40 40 46 1
41 5 41 1
42 41 42 1
43 13 42 1
44 42 43 2
45 43 44 1
46 43 45 1
47 8 45 1
48 14 45 1
49 45 46 1
50 46 47 2
51 3 47 1
52 47 48 1
@<TRIPOS>SUBSTRUCTURE
1	UNK0	1	GROUP	1 ****	UNK
