# created with PyMOL 2.5.0
@<TRIPOS>MOLECULE
MOL
48 52 1                 
SMALL
USER_CHARGES
@<TRIPOS>ATOM
1	 H10	8.300	3.870	24.140	 H	1	UNK0	0.000	
2	 H07	2.010	9.400	22.740	 H	1	UNK0	0.000	
3	 H17	8.040	9.420	21.160	 H	1	UNK0	0.000	
4	 H08	3.200	8.270	23.400	 H	1	UNK0	0.000	
5	 H13	6.500	8.270	26.440	 H	1	UNK0	0.000	
6	 H09	3.400	3.230	21.310	 H	1	UNK0	0.000	
7	 H11	9.350	2.240	22.620	 H	1	UNK0	0.000	
8	 H15	10.030	7.960	23.510	 H	1	UNK0	0.000	
9	 H03	2.840	5.080	20.630	 H	1	UNK0	0.000	
10	 H12	8.080	1.300	20.640	 H	1	UNK0	0.000	
11	 H01	4.520	6.770	21.460	 H	1	UNK0	0.000	
12	 H02	4.000	7.120	19.790	 H	1	UNK0	0.000	
13	 H14	8.720	8.470	27.320	 H	1	UNK0	0.000	
14	 H16	10.010	9.720	23.540	 H	1	UNK0	0.000	
15	 H06	0.650	7.500	21.910	 H	1	UNK0	0.000	
16	 H05	0.950	7.300	23.640	 H	1	UNK0	0.000	
17	 H04	1.700	6.370	20.340	 H	1	UNK0	0.000	
18	  N1	3.240	8.450	21.270	N.3	1	UNK0	0.000	
19	  C1	3.670	7.090	20.840	C.3	1	UNK0	0.000	
20	  C2	2.530	6.070	20.970	C.3	1	UNK0	0.000	
21	  N2	2.020	6.030	22.340	N.pl3	1	UNK0	0.000	
22	  C3	2.620	5.360	23.370	C.2	1	UNK0	0.000	
23	  O1	2.340	5.650	24.530	O.2	1	UNK0	0.000	
24	  C4	1.430	7.320	22.650	C.3	1	UNK0	0.000	
25	  C5	2.490	8.440	22.590	C.3	1	UNK0	0.000	
26	  C6	3.810	4.590	23.080	C.2	1	UNK0	0.000	
27	  C7	4.110	3.600	22.040	C.2	1	UNK0	0.000	
28	  C8	5.620	3.150	22.090	C.2	1	UNK0	0.000	
29	  C9	6.380	3.770	23.190	C.2	1	UNK0	0.000	
30	  S1	5.300	4.930	24.170	S.3	1	UNK0	0.000	
31	 C10	7.710	3.430	23.340	C.2	1	UNK0	0.000	
32	 C11	8.300	2.510	22.470	C.2	1	UNK0	0.000	
33	 C12	7.630	1.950	21.380	C.2	1	UNK0	0.000	
34	  N3	6.310	2.200	21.130	N.pl3	1	UNK0	0.000	
35	  O2	5.690	1.910	20.060	O.2	1	UNK0	0.000	
36	  S2	4.470	9.630	21.180	S.o2	1	UNK0	0.000	
37	  O3	3.900	10.870	21.660	O.2	1	UNK0	0.000	
38	  O4	5.050	9.490	19.860	O.2	1	UNK0	0.000	
39	  N4	5.590	8.850	23.750	N.2	1	UNK0	0.000	
40	 C13	7.020	8.600	24.450	C.2	1	UNK0	0.000	
41	 C14	7.320	8.410	25.740	C.2	1	UNK0	0.000	
42	 C15	8.570	8.530	26.240	C.2	1	UNK0	0.000	
43	 C16	9.630	8.780	25.430	C.2	1	UNK0	0.000	
44	 Cl1	11.150	9.210	26.110	Cl	1	UNK0	0.000	
45	 C17	9.510	8.820	23.920	C.3	1	UNK0	0.000	
46	 C18	8.080	8.810	23.420	C.2	1	UNK0	0.000	
47	 C19	7.530	9.130	22.080	C.2	1	UNK0	0.000	
48	 C20	5.800	9.150	22.350	C.2	1	UNK0	0.000	
@<TRIPOS>BOND
1 18 19 1
2 18 25 1
3 18 36 1
4 11 19 1
5 12 19 1
6 19 20 1
7 9 20 1
8 17 20 1
9 20 21 1
10 21 22 1
11 21 24 1
12 22 23 2
13 22 26 1
14 15 24 1
15 16 24 1
16 24 25 1
17 2 25 1
18 4 25 1
19 26 27 2
20 26 30 1
21 6 27 1
22 27 28 1
23 28 29 1
24 28 34 2
25 29 30 1
26 29 31 2
27 1 31 1
28 31 32 1
29 7 32 1
30 32 33 2
31 10 33 1
32 33 34 1
33 34 35 1
34 36 37 2
35 36 38 2
36 36 48 1
37 39 40 1
38 39 48 2
39 40 41 2
40 40 46 1
41 5 41 1
42 41 42 1
43 13 42 1
44 42 43 2
45 43 44 1
46 43 45 1
47 8 45 1
48 14 45 1
49 45 46 1
50 46 47 2
51 3 47 1
52 47 48 1
@<TRIPOS>SUBSTRUCTURE
1	UNK0	1	GROUP	1 ****	UNK
