# created with PyMOL 2.5.0
@<TRIPOS>MOLECULE
MOL
31 35 1                 
SMALL
USER_CHARGES
@<TRIPOS>ATOM
1	  N1	5.799	7.966	16.501	N.3	1	UNK0	0.000	
2	  C1	6.977	7.086	16.703	C.3	1	UNK0	0.000	
3	  C2	6.771	5.725	16.024	C.3	1	UNK0	0.000	
4	  N2	5.558	5.040	16.472	N.pl3	1	UNK0	0.000	
5	  C3	5.364	3.679	16.354	C.2	1	UNK0	0.000	
6	  O1	4.245	3.267	16.103	O.2	1	UNK0	0.000	
7	  C4	4.372	5.894	16.369	C.3	1	UNK0	0.000	
8	  C5	4.567	7.277	17.019	C.3	1	UNK0	0.000	
9	  C6	6.490	2.796	16.477	C.2	1	UNK0	0.000	
10	  C7	6.656	1.493	15.794	C.2	1	UNK0	0.000	
11	  C8	7.974	0.756	16.262	C.2	1	UNK0	0.000	
12	  C9	8.728	1.501	17.268	C.2	1	UNK0	0.000	
13	  S1	7.865	3.088	17.728	S.3	1	UNK0	0.000	
14	 C10	9.922	0.977	17.749	C.2	1	UNK0	0.000	
15	 C11	10.395	-0.244	17.245	C.2	1	UNK0	0.000	
16	 C12	9.702	-0.994	16.287	C.2	1	UNK0	0.000	
17	  N3	8.483	-0.598	15.790	N.pl3	1	UNK0	0.000	
18	  O2	7.895	-1.160	14.810	O.2	1	UNK0	0.000	
19	  S2	6.000	9.563	17.072	S.o2	1	UNK0	0.000	
20	  O3	4.716	10.223	16.920	O.2	1	UNK0	0.000	
21	  O4	7.192	10.060	16.414	O.2	1	UNK0	0.000	
22	  N4	5.638	8.660	19.825	N.2	1	UNK0	0.000	
23	 C13	6.407	8.663	21.223	C.2	1	UNK0	0.000	
24	 C14	6.216	7.892	22.308	C.2	1	UNK0	0.000	
25	 C15	7.105	7.820	23.329	C.2	1	UNK0	0.000	
26	 C16	8.229	8.555	23.347	C.2	1	UNK0	0.000	
27	 Cl1	9.398	8.333	24.595	Cl	1	UNK0	0.000	
28	 C17	8.587	9.562	22.251	C.3	1	UNK0	0.000	
29	 C18	7.631	9.503	21.084	C.2	1	UNK0	0.000	
30	 C19	7.771	10.091	19.710	C.2	1	UNK0	0.000	
31	 C20	6.364	9.478	18.873	C.2	1	UNK0	0.000	
@<TRIPOS>BOND
1 1 2 1
2 1 8 1
3 1 19 1
4 2 3 1
5 3 4 1
6 4 5 1
7 4 7 1
8 5 6 2
9 5 9 1
10 7 8 1
11 9 10 2
12 9 13 1
13 10 11 1
14 11 12 1
15 11 17 2
16 12 13 1
17 12 14 2
18 14 15 1
19 15 16 2
20 16 17 1
21 17 18 1
22 19 20 2
23 19 21 2
24 19 31 1
25 22 23 1
26 22 31 2
27 23 24 2
28 23 29 1
29 24 25 1
30 25 26 2
31 26 27 1
32 26 28 1
33 28 29 1
34 29 30 2
35 30 31 1
@<TRIPOS>SUBSTRUCTURE
1	UNK0	1	GROUP	1 ****	UNK
