# created with PyMOL 2.5.0
@<TRIPOS>MOLECULE
MOL
31 35 1                 
SMALL
USER_CHARGES
@<TRIPOS>ATOM
1	  N1	3.177	4.346	22.923	N.3	1	UNK0	0.000	
2	  C1	3.503	4.186	21.466	C.3	1	UNK0	0.000	
3	  C2	2.952	2.857	20.903	C.3	1	UNK0	0.000	
4	  N2	3.387	1.717	21.696	N.pl3	1	UNK0	0.000	
5	  C3	4.594	1.076	21.528	C.2	1	UNK0	0.000	
6	  O1	5.159	0.694	22.532	O.2	1	UNK0	0.000	
7	  C4	2.952	1.877	23.081	C.3	1	UNK0	0.000	
8	  C5	3.573	3.136	23.714	C.3	1	UNK0	0.000	
9	  C6	5.224	1.068	20.231	C.2	1	UNK0	0.000	
10	  C7	4.666	1.008	18.857	C.2	1	UNK0	0.000	
11	  C8	5.821	1.036	17.772	C.2	1	UNK0	0.000	
12	  C9	7.167	1.091	18.364	C.2	1	UNK0	0.000	
13	  S1	7.095	1.097	20.223	S.3	1	UNK0	0.000	
14	 C10	8.266	1.132	17.519	C.2	1	UNK0	0.000	
15	 C11	8.088	1.120	16.124	C.2	1	UNK0	0.000	
16	 C12	6.811	1.078	15.534	C.2	1	UNK0	0.000	
17	  N3	5.665	1.018	16.268	N.pl3	1	UNK0	0.000	
18	  O2	4.495	1.065	15.783	O.2	1	UNK0	0.000	
19	  S2	3.481	5.868	23.616	S.o2	1	UNK0	0.000	
20	  O3	3.181	5.749	25.027	O.2	1	UNK0	0.000	
21	  O4	2.811	6.814	22.752	O.2	1	UNK0	0.000	
22	  N4	6.083	6.841	24.487	N.2	1	UNK0	0.000	
23	 C13	7.478	7.325	23.859	C.2	1	UNK0	0.000	
24	 C14	8.482	8.043	24.408	C.2	1	UNK0	0.000	
25	 C15	9.508	8.561	23.682	C.2	1	UNK0	0.000	
26	 C16	9.623	8.333	22.349	C.2	1	UNK0	0.000	
27	 Cl1	10.941	8.991	21.443	Cl	1	UNK0	0.000	
28	 C17	8.627	7.490	21.567	C.3	1	UNK0	0.000	
29	 C18	7.457	7.027	22.400	C.2	1	UNK0	0.000	
30	 C19	6.189	6.381	21.957	C.2	1	UNK0	0.000	
31	 C20	5.268	6.258	23.454	C.2	1	UNK0	0.000	
@<TRIPOS>BOND
1 1 2 1
2 1 8 1
3 1 19 1
4 2 3 1
5 3 4 1
6 4 5 1
7 4 7 1
8 5 6 2
9 5 9 1
10 7 8 1
11 9 10 2
12 9 13 1
13 10 11 1
14 11 12 1
15 11 17 2
16 12 13 1
17 12 14 2
18 14 15 1
19 15 16 2
20 16 17 1
21 17 18 1
22 19 20 2
23 19 21 2
24 19 31 1
25 22 23 1
26 22 31 2
27 23 24 2
28 23 29 1
29 24 25 1
30 25 26 2
31 26 27 1
32 26 28 1
33 28 29 1
34 29 30 2
35 30 31 1
@<TRIPOS>SUBSTRUCTURE
1	UNK0	1	GROUP	1 ****	UNK
