# created with PyMOL 2.5.0
@<TRIPOS>MOLECULE
MOL
31 35 1                 
SMALL
USER_CHARGES
@<TRIPOS>ATOM
1	  N1	4.218	6.077	19.521	N.3	1	UNK0	0.000	
2	  C1	5.348	5.732	18.615	C.3	1	UNK0	0.000	
3	  C2	5.195	4.296	18.095	C.3	1	UNK0	0.000	
4	  N2	5.136	3.339	19.200	N.pl3	1	UNK0	0.000	
5	  C3	6.041	2.354	19.484	C.2	1	UNK0	0.000	
6	  O1	5.758	1.472	20.272	O.2	1	UNK0	0.000	
7	  C4	4.029	3.625	20.104	C.3	1	UNK0	0.000	
8	  C5	4.081	5.066	20.624	C.3	1	UNK0	0.000	
9	  C6	7.274	2.357	18.724	C.2	1	UNK0	0.000	
10	  C7	7.919	1.228	18.030	C.2	1	UNK0	0.000	
11	  C8	9.232	1.685	17.272	C.2	1	UNK0	0.000	
12	  C9	9.536	3.114	17.451	C.2	1	UNK0	0.000	
13	  S1	8.294	3.925	18.560	S.3	1	UNK0	0.000	
14	 C10	10.614	3.667	16.778	C.2	1	UNK0	0.000	
15	 C11	11.385	2.851	15.928	C.2	1	UNK0	0.000	
16	 C12	11.127	1.495	15.743	C.2	1	UNK0	0.000	
17	  N3	10.104	0.836	16.371	N.pl3	1	UNK0	0.000	
18	  O2	9.902	-0.424	16.340	O.2	1	UNK0	0.000	
19	  S2	4.222	7.707	20.030	S.o2	1	UNK0	0.000	
20	  O3	3.081	7.862	20.908	O.2	1	UNK0	0.000	
21	  O4	4.360	8.502	18.827	O.2	1	UNK0	0.000	
22	  N4	6.448	7.081	21.824	N.2	1	UNK0	0.000	
23	 C13	7.470	7.864	22.784	C.2	1	UNK0	0.000	
24	 C14	8.277	7.432	23.775	C.2	1	UNK0	0.000	
25	 C15	9.018	8.260	24.556	C.2	1	UNK0	0.000	
26	 C16	8.927	9.595	24.430	C.2	1	UNK0	0.000	
27	 Cl1	10.129	10.643	25.053	Cl	1	UNK0	0.000	
28	 C17	7.820	10.216	23.598	C.3	1	UNK0	0.000	
29	 C18	7.284	9.319	22.553	C.2	1	UNK0	0.000	
30	 C19	6.262	9.633	21.516	C.2	1	UNK0	0.000	
31	 C20	5.705	8.047	21.039	C.2	1	UNK0	0.000	
@<TRIPOS>BOND
1 1 2 1
2 1 8 1
3 1 19 1
4 2 3 1
5 3 4 1
6 4 5 1
7 4 7 1
8 5 6 2
9 5 9 1
10 7 8 1
11 9 10 2
12 9 13 1
13 10 11 1
14 11 12 1
15 11 17 2
16 12 13 1
17 12 14 2
18 14 15 1
19 15 16 2
20 16 17 1
21 17 18 1
22 19 20 2
23 19 21 2
24 19 31 1
25 22 23 1
26 22 31 2
27 23 24 2
28 23 29 1
29 24 25 1
30 25 26 2
31 26 27 1
32 26 28 1
33 28 29 1
34 29 30 2
35 30 31 1
@<TRIPOS>SUBSTRUCTURE
1	UNK0	1	GROUP	1 ****	UNK
