# created with PyMOL 2.5.0
@<TRIPOS>MOLECULE
MOL
31 35 1                 
SMALL
USER_CHARGES
@<TRIPOS>ATOM
1	  N1	3.735	6.004	20.384	N.3	1	UNK0	0.000	
2	  C1	4.933	5.442	19.683	C.3	1	UNK0	0.000	
3	  C2	4.671	4.001	19.205	C.3	1	UNK0	0.000	
4	  N2	4.201	3.143	20.296	N.pl3	1	UNK0	0.000	
5	  C3	4.560	1.823	20.487	C.2	1	UNK0	0.000	
6	  O1	3.980	1.154	21.308	O.2	1	UNK0	0.000	
7	  C4	3.093	3.695	21.047	C.3	1	UNK0	0.000	
8	  C5	3.375	5.125	21.535	C.3	1	UNK0	0.000	
9	  C6	5.689	1.361	19.726	C.2	1	UNK0	0.000	
10	  C7	5.726	0.469	18.557	C.2	1	UNK0	0.000	
11	  C8	7.215	0.177	18.125	C.2	1	UNK0	0.000	
12	  C9	8.217	0.857	18.963	C.2	1	UNK0	0.000	
13	  S1	7.400	1.869	20.263	S.3	1	UNK0	0.000	
14	 C10	9.566	0.655	18.691	C.2	1	UNK0	0.000	
15	 C11	9.934	-0.196	17.641	C.2	1	UNK0	0.000	
16	 C12	8.992	-0.846	16.833	C.2	1	UNK0	0.000	
17	  N3	7.653	-0.714	17.035	N.pl3	1	UNK0	0.000	
18	  O2	6.751	-1.304	16.367	O.2	1	UNK0	0.000	
19	  S2	3.867	7.644	20.802	S.o2	1	UNK0	0.000	
20	  O3	2.709	7.986	21.603	O.2	1	UNK0	0.000	
21	  O4	4.176	8.372	19.591	O.2	1	UNK0	0.000	
22	  N4	5.410	7.485	23.260	N.2	1	UNK0	0.000	
23	 C13	6.842	7.923	23.798	C.2	1	UNK0	0.000	
24	 C14	7.443	7.734	24.987	C.2	1	UNK0	0.000	
25	 C15	8.734	8.073	25.195	C.2	1	UNK0	0.000	
26	 C16	9.483	8.671	24.243	C.2	1	UNK0	0.000	
27	 Cl1	11.104	9.159	24.571	Cl	1	UNK0	0.000	
28	 C17	8.942	9.030	22.874	C.3	1	UNK0	0.000	
29	 C18	7.561	8.602	22.676	C.2	1	UNK0	0.000	
30	 C19	6.749	8.671	21.427	C.2	1	UNK0	0.000	
31	 C20	5.339	7.853	21.860	C.2	1	UNK0	0.000	
@<TRIPOS>BOND
1 1 2 1
2 1 8 1
3 1 19 1
4 2 3 1
5 3 4 1
6 4 5 1
7 4 7 1
8 5 6 2
9 5 9 1
10 7 8 1
11 9 10 2
12 9 13 1
13 10 11 1
14 11 12 1
15 11 17 2
16 12 13 1
17 12 14 2
18 14 15 1
19 15 16 2
20 16 17 1
21 17 18 1
22 19 20 2
23 19 21 2
24 19 31 1
25 22 23 1
26 22 31 2
27 23 24 2
28 23 29 1
29 24 25 1
30 25 26 2
31 26 27 1
32 26 28 1
33 28 29 1
34 29 30 2
35 30 31 1
@<TRIPOS>SUBSTRUCTURE
1	UNK0	1	GROUP	1 ****	UNK
