# created with PyMOL 2.5.0
@<TRIPOS>MOLECULE
MOL
31 35 1                 
SMALL
USER_CHARGES
@<TRIPOS>ATOM
1	  N1	4.505	3.977	23.178	N.3	1	UNK0	0.000	
2	  C1	3.434	3.053	22.741	C.3	1	UNK0	0.000	
3	  C2	3.984	1.640	22.422	C.3	1	UNK0	0.000	
4	  N2	5.123	1.647	21.499	N.pl3	1	UNK0	0.000	
5	  C3	5.442	0.465	20.854	C.2	1	UNK0	0.000	
6	  O1	4.782	-0.531	21.073	O.2	1	UNK0	0.000	
7	  C4	6.143	2.614	21.899	C.3	1	UNK0	0.000	
8	  C5	5.564	4.012	22.127	C.3	1	UNK0	0.000	
9	  C6	6.561	0.481	19.942	C.2	1	UNK0	0.000	
10	  C7	7.570	-0.578	19.734	C.2	1	UNK0	0.000	
11	  C8	8.589	-0.186	18.585	C.2	1	UNK0	0.000	
12	  C9	8.288	1.115	17.975	C.2	1	UNK0	0.000	
13	  S1	6.769	1.890	18.727	S.3	1	UNK0	0.000	
14	 C10	9.117	1.608	16.973	C.2	1	UNK0	0.000	
15	 C11	10.227	0.861	16.564	C.2	1	UNK0	0.000	
16	 C12	10.547	-0.385	17.108	C.2	1	UNK0	0.000	
17	  N3	9.798	-0.986	18.083	N.pl3	1	UNK0	0.000	
18	  O2	10.089	-2.110	18.594	O.2	1	UNK0	0.000	
19	  S2	3.966	5.508	23.695	S.o2	1	UNK0	0.000	
20	  O3	2.917	5.307	24.676	O.2	1	UNK0	0.000	
21	  O4	3.704	6.236	22.468	O.2	1	UNK0	0.000	
22	  N4	5.818	6.215	25.851	N.2	1	UNK0	0.000	
23	 C13	7.179	7.032	26.080	C.2	1	UNK0	0.000	
24	 C14	7.980	7.085	27.155	C.2	1	UNK0	0.000	
25	 C15	9.200	7.698	27.131	C.2	1	UNK0	0.000	
26	 C16	9.639	8.356	26.060	C.2	1	UNK0	0.000	
27	 Cl1	11.189	9.137	26.056	Cl	1	UNK0	0.000	
28	 C17	8.827	8.496	24.767	C.3	1	UNK0	0.000	
29	 C18	7.547	7.683	24.798	C.2	1	UNK0	0.000	
30	 C19	6.576	7.391	23.699	C.2	1	UNK0	0.000	
31	 C20	5.397	6.360	24.488	C.2	1	UNK0	0.000	
@<TRIPOS>BOND
1 1 2 1
2 1 8 1
3 1 19 1
4 2 3 1
5 3 4 1
6 4 5 1
7 4 7 1
8 5 6 2
9 5 9 1
10 7 8 1
11 9 10 2
12 9 13 1
13 10 11 1
14 11 12 1
15 11 17 2
16 12 13 1
17 12 14 2
18 14 15 1
19 15 16 2
20 16 17 1
21 17 18 1
22 19 20 2
23 19 21 2
24 19 31 1
25 22 23 1
26 22 31 2
27 23 24 2
28 23 29 1
29 24 25 1
30 25 26 2
31 26 27 1
32 26 28 1
33 28 29 1
34 29 30 2
35 30 31 1
@<TRIPOS>SUBSTRUCTURE
1	UNK0	1	GROUP	1 ****	UNK
