# created with PyMOL 2.5.0
@<TRIPOS>MOLECULE
MOL
31 35 1                 
SMALL
USER_CHARGES
@<TRIPOS>ATOM
1	  N1	4.407	7.787	21.106	N.3	1	UNK0	0.000	
2	  C1	5.533	7.823	20.134	C.3	1	UNK0	0.000	
3	  C2	5.304	6.825	18.995	C.3	1	UNK0	0.000	
4	  N2	5.164	5.474	19.499	N.pl3	1	UNK0	0.000	
5	  C3	5.932	4.391	19.124	C.2	1	UNK0	0.000	
6	  O1	5.550	3.251	19.350	O.2	1	UNK0	0.000	
7	  C4	4.087	5.347	20.470	C.3	1	UNK0	0.000	
8	  C5	4.166	6.387	21.607	C.3	1	UNK0	0.000	
9	  C6	7.167	4.678	18.441	C.2	1	UNK0	0.000	
10	  C7	7.706	4.061	17.213	C.2	1	UNK0	0.000	
11	  C8	9.142	4.627	16.850	C.2	1	UNK0	0.000	
12	  C9	9.633	5.605	17.832	C.2	1	UNK0	0.000	
13	  S1	8.396	5.880	19.200	S.3	1	UNK0	0.000	
14	 C10	10.895	6.159	17.656	C.2	1	UNK0	0.000	
15	 C11	11.675	5.764	16.558	C.2	1	UNK0	0.000	
16	 C12	11.235	4.845	15.598	C.2	1	UNK0	0.000	
17	  N3	10.004	4.263	15.664	N.pl3	1	UNK0	0.000	
18	  O2	9.563	3.421	14.825	O.2	1	UNK0	0.000	
19	  S2	4.548	8.954	22.318	S.o2	1	UNK0	0.000	
20	  O3	3.402	8.820	23.207	O.2	1	UNK0	0.000	
21	  O4	4.749	10.209	21.633	O.2	1	UNK0	0.000	
22	  N4	6.208	7.951	24.520	N.2	1	UNK0	0.000	
23	 C13	7.702	8.074	25.057	C.2	1	UNK0	0.000	
24	 C14	8.317	7.507	26.113	C.2	1	UNK0	0.000	
25	 C15	9.605	7.727	26.459	C.2	1	UNK0	0.000	
26	 C16	10.400	8.534	25.711	C.2	1	UNK0	0.000	
27	 Cl1	11.979	8.915	26.246	Cl	1	UNK0	0.000	
28	 C17	9.941	9.175	24.410	C.3	1	UNK0	0.000	
29	 C18	8.481	8.916	24.100	C.2	1	UNK0	0.000	
30	 C19	7.656	9.369	22.938	C.2	1	UNK0	0.000	
31	 C20	6.089	8.665	23.276	C.2	1	UNK0	0.000	
@<TRIPOS>BOND
1 1 2 1
2 1 8 1
3 1 19 1
4 2 3 1
5 3 4 1
6 4 5 1
7 4 7 1
8 5 6 2
9 5 9 1
10 7 8 1
11 9 10 2
12 9 13 1
13 10 11 1
14 11 12 1
15 11 17 2
16 12 13 1
17 12 14 2
18 14 15 1
19 15 16 2
20 16 17 1
21 17 18 1
22 19 20 2
23 19 21 2
24 19 31 1
25 22 23 1
26 22 31 2
27 23 24 2
28 23 29 1
29 24 25 1
30 25 26 2
31 26 27 1
32 26 28 1
33 28 29 1
34 29 30 2
35 30 31 1
@<TRIPOS>SUBSTRUCTURE
1	UNK0	1	GROUP	1 ****	UNK
