# created with PyMOL 2.5.0
@<TRIPOS>MOLECULE
MOL
48 52 1                 
SMALL
USER_CHARGES
@<TRIPOS>ATOM
1	 H10	10.890	0.480	19.370	 H	1	UNK0	0.000	
2	 H07	3.710	4.490	23.050	 H	1	UNK0	0.000	
3	 H17	9.110	7.590	23.240	 H	1	UNK0	0.000	
4	 H08	4.600	3.040	22.650	 H	1	UNK0	0.000	
5	 H13	8.370	6.280	28.670	 H	1	UNK0	0.000	
6	 H09	5.660	0.970	17.170	 H	1	UNK0	0.000	
7	 H11	11.540	-0.960	17.480	 H	1	UNK0	0.000	
8	 H15	11.560	7.250	25.330	 H	1	UNK0	0.000	
9	 H03	7.430	4.320	19.820	 H	1	UNK0	0.000	
10	 H12	9.850	-1.600	15.680	 H	1	UNK0	0.000	
11	 H01	7.230	3.320	22.150	 H	1	UNK0	0.000	
12	 H02	7.880	4.950	22.220	 H	1	UNK0	0.000	
13	 H14	10.550	7.010	29.330	 H	1	UNK0	0.000	
14	 H16	10.890	8.850	25.660	 H	1	UNK0	0.000	
15	 H06	4.190	5.400	20.750	 H	1	UNK0	0.000	
16	 H05	3.340	3.860	20.670	 H	1	UNK0	0.000	
17	 H04	6.390	5.630	20.310	 H	1	UNK0	0.000	
18	  N1	5.860	4.700	22.920	N.3	1	UNK0	0.000	
19	  C1	6.980	4.370	21.980	C.3	1	UNK0	0.000	
20	  C2	6.610	4.580	20.490	C.3	1	UNK0	0.000	
21	  N2	5.400	3.850	20.170	N.pl3	1	UNK0	0.000	
22	  C3	5.300	2.610	19.560	C.2	1	UNK0	0.000	
23	  O1	4.200	2.100	19.470	O.2	1	UNK0	0.000	
24	  C4	4.280	4.340	20.960	C.3	1	UNK0	0.000	
25	  C5	4.550	4.120	22.460	C.3	1	UNK0	0.000	
26	  C6	6.480	1.950	19.030	C.2	1	UNK0	0.000	
27	  C7	6.510	1.110	17.820	C.2	1	UNK0	0.000	
28	  C8	7.920	0.420	17.630	C.2	1	UNK0	0.000	
29	  C9	8.870	0.750	18.690	C.2	1	UNK0	0.000	
30	  S1	8.110	1.860	19.970	S.3	1	UNK0	0.000	
31	 C10	10.160	0.220	18.610	C.2	1	UNK0	0.000	
32	 C11	10.520	-0.610	17.540	C.2	1	UNK0	0.000	
33	 C12	9.610	-0.970	16.530	C.2	1	UNK0	0.000	
34	  N3	8.320	-0.530	16.520	N.pl3	1	UNK0	0.000	
35	  O2	7.480	-0.810	15.610	O.2	1	UNK0	0.000	
36	  S2	5.790	6.310	23.450	S.o2	1	UNK0	0.000	
37	  O3	4.570	6.460	24.210	O.2	1	UNK0	0.000	
38	  O4	6.040	7.140	22.280	O.2	1	UNK0	0.000	
39	  N4	7.190	6.300	26.010	N.2	1	UNK0	0.000	
40	 C13	8.590	6.750	26.640	C.2	1	UNK0	0.000	
41	 C14	9.030	6.690	27.910	C.2	1	UNK0	0.000	
42	 C15	10.270	7.100	28.290	C.2	1	UNK0	0.000	
43	 C16	11.140	7.630	27.400	C.2	1	UNK0	0.000	
44	 Cl1	12.700	8.160	27.890	Cl	1	UNK0	0.000	
45	 C17	10.820	7.790	25.920	C.3	1	UNK0	0.000	
46	 C18	9.440	7.300	25.550	C.2	1	UNK0	0.000	
47	 C19	8.760	7.260	24.220	C.2	1	UNK0	0.000	
48	 C20	7.200	6.570	24.590	C.2	1	UNK0	0.000	
@<TRIPOS>BOND
1 18 19 1
2 18 25 1
3 18 36 1
4 11 19 1
5 12 19 1
6 19 20 1
7 9 20 1
8 17 20 1
9 20 21 1
10 21 22 1
11 21 24 1
12 22 23 2
13 22 26 1
14 15 24 1
15 16 24 1
16 24 25 1
17 2 25 1
18 4 25 1
19 26 27 2
20 26 30 1
21 6 27 1
22 27 28 1
23 28 29 1
24 28 34 2
25 29 30 1
26 29 31 2
27 1 31 1
28 31 32 1
29 7 32 1
30 32 33 2
31 10 33 1
32 33 34 1
33 34 35 1
34 36 37 2
35 36 38 2
36 36 48 1
37 39 40 1
38 39 48 2
39 40 41 2
40 40 46 1
41 5 41 1
42 41 42 1
43 13 42 1
44 42 43 2
45 43 44 1
46 43 45 1
47 8 45 1
48 14 45 1
49 45 46 1
50 46 47 2
51 3 47 1
52 47 48 1
@<TRIPOS>SUBSTRUCTURE
1	UNK0	1	GROUP	1 ****	UNK
