# created with PyMOL 2.5.0
@<TRIPOS>MOLECULE
MOL
31 35 1                 
SMALL
USER_CHARGES
@<TRIPOS>ATOM
1	  N1	5.778	7.619	21.886	N.3	1	UNK0	0.000	
2	  C1	6.785	6.851	21.078	C.3	1	UNK0	0.000	
3	  C2	6.138	5.616	20.405	C.3	1	UNK0	0.000	
4	  N2	5.339	4.784	21.294	N.pl3	1	UNK0	0.000	
5	  C3	4.909	3.525	20.956	C.2	1	UNK0	0.000	
6	  O1	3.823	3.133	21.351	O.2	1	UNK0	0.000	
7	  C4	4.443	5.537	22.170	C.3	1	UNK0	0.000	
8	  C5	5.138	6.710	22.861	C.3	1	UNK0	0.000	
9	  C6	5.774	2.712	20.120	C.2	1	UNK0	0.000	
10	  C7	5.379	1.828	19.019	C.2	1	UNK0	0.000	
11	  C8	6.610	0.986	18.474	C.2	1	UNK0	0.000	
12	  C9	7.846	1.249	19.224	C.2	1	UNK0	0.000	
13	  S1	7.578	2.511	20.567	S.3	1	UNK0	0.000	
14	 C10	8.996	0.546	18.864	C.2	1	UNK0	0.000	
15	 C11	8.962	-0.341	17.795	C.2	1	UNK0	0.000	
16	 C12	7.806	-0.606	17.054	C.2	1	UNK0	0.000	
17	  N3	6.601	-0.010	17.332	N.pl3	1	UNK0	0.000	
18	  O2	5.541	-0.170	16.671	O.2	1	UNK0	0.000	
19	  S2	6.382	9.045	22.595	S.o2	1	UNK0	0.000	
20	  O3	5.297	9.575	23.400	O.2	1	UNK0	0.000	
21	  O4	6.967	9.847	21.529	O.2	1	UNK0	0.000	
22	  N4	7.557	7.893	24.996	N.2	1	UNK0	0.000	
23	 C13	8.992	7.591	25.639	C.2	1	UNK0	0.000	
24	 C14	9.330	7.044	26.821	C.2	1	UNK0	0.000	
25	 C15	10.613	6.861	27.220	C.2	1	UNK0	0.000	
26	 C16	11.659	7.212	26.435	C.2	1	UNK0	0.000	
27	 Cl1	13.263	6.739	26.821	Cl	1	UNK0	0.000	
28	 C17	11.485	7.956	25.114	C.3	1	UNK0	0.000	
29	 C18	10.039	8.085	24.698	C.2	1	UNK0	0.000	
30	 C19	9.462	8.691	23.462	C.2	1	UNK0	0.000	
31	 C20	7.732	8.554	23.726	C.2	1	UNK0	0.000	
@<TRIPOS>BOND
1 1 2 1
2 1 8 1
3 1 19 1
4 2 3 1
5 3 4 1
6 4 5 1
7 4 7 1
8 5 6 2
9 5 9 1
10 7 8 1
11 9 10 2
12 9 13 1
13 10 11 1
14 11 12 1
15 11 17 2
16 12 13 1
17 12 14 2
18 14 15 1
19 15 16 2
20 16 17 1
21 17 18 1
22 19 20 2
23 19 21 2
24 19 31 1
25 22 23 1
26 22 31 2
27 23 24 2
28 23 29 1
29 24 25 1
30 25 26 2
31 26 27 1
32 26 28 1
33 28 29 1
34 29 30 2
35 30 31 1
@<TRIPOS>SUBSTRUCTURE
1	UNK0	1	GROUP	1 ****	UNK
