# created with PyMOL 2.5.0
@<TRIPOS>MOLECULE
MOL
31 35 1                 
SMALL
USER_CHARGES
@<TRIPOS>ATOM
1	  N1	1.496	7.151	20.367	N.3	1	UNK0	0.000	
2	  C1	2.418	6.145	19.748	C.3	1	UNK0	0.000	
3	  C2	1.790	4.729	19.743	C.3	1	UNK0	0.000	
4	  N2	1.365	4.336	21.084	N.pl3	1	UNK0	0.000	
5	  C3	2.175	3.761	22.035	C.2	1	UNK0	0.000	
6	  O1	1.897	3.887	23.220	O.2	1	UNK0	0.000	
7	  C4	0.345	5.257	21.559	C.3	1	UNK0	0.000	
8	  C5	0.922	6.689	21.665	C.3	1	UNK0	0.000	
9	  C6	3.442	3.211	21.597	C.2	1	UNK0	0.000	
10	  C7	3.786	2.332	20.470	C.2	1	UNK0	0.000	
11	  C8	5.349	2.048	20.416	C.2	1	UNK0	0.000	
12	  C9	6.087	2.687	21.519	C.2	1	UNK0	0.000	
13	  S1	4.942	3.650	22.626	S.3	1	UNK0	0.000	
14	 C10	7.469	2.507	21.579	C.2	1	UNK0	0.000	
15	 C11	8.111	1.734	20.608	C.2	1	UNK0	0.000	
16	 C12	7.433	1.124	19.536	C.2	1	UNK0	0.000	
17	  N3	6.083	1.219	19.383	N.pl3	1	UNK0	0.000	
18	  O2	5.412	0.775	18.409	O.2	1	UNK0	0.000	
19	  S2	2.152	8.727	20.410	S.o2	1	UNK0	0.000	
20	  O3	1.190	9.558	21.111	O.2	1	UNK0	0.000	
21	  O4	2.597	9.030	19.064	O.2	1	UNK0	0.000	
22	  N4	3.691	8.313	22.853	N.2	1	UNK0	0.000	
23	 C13	5.219	8.236	23.338	C.2	1	UNK0	0.000	
24	 C14	5.724	7.976	24.561	C.2	1	UNK0	0.000	
25	 C15	7.063	7.928	24.806	C.2	1	UNK0	0.000	
26	 C16	7.967	8.158	23.831	C.2	1	UNK0	0.000	
27	 Cl1	9.645	8.077	24.197	Cl	1	UNK0	0.000	
28	 C17	7.592	8.478	22.391	C.3	1	UNK0	0.000	
29	 C18	6.093	8.514	22.174	C.2	1	UNK0	0.000	
30	 C19	5.318	8.792	20.921	C.2	1	UNK0	0.000	
31	 C20	3.656	8.634	21.455	C.2	1	UNK0	0.000	
@<TRIPOS>BOND
1 1 2 1
2 1 8 1
3 1 19 1
4 2 3 1
5 3 4 1
6 4 5 1
7 4 7 1
8 5 6 2
9 5 9 1
10 7 8 1
11 9 10 2
12 9 13 1
13 10 11 1
14 11 12 1
15 11 17 2
16 12 13 1
17 12 14 2
18 14 15 1
19 15 16 2
20 16 17 1
21 17 18 1
22 19 20 2
23 19 21 2
24 19 31 1
25 22 23 1
26 22 31 2
27 23 24 2
28 23 29 1
29 24 25 1
30 25 26 2
31 26 27 1
32 26 28 1
33 28 29 1
34 29 30 2
35 30 31 1
@<TRIPOS>SUBSTRUCTURE
1	UNK0	1	GROUP	1 ****	UNK
