# created with PyMOL 2.5.0
@<TRIPOS>MOLECULE
ZINC03832016
42 44 1                 
SMALL
USER_CHARGES
@<TRIPOS>ATOM
1	 H19	-1.170	11.550	26.190	 H	1	UNK0	0.000	
2	 H08	8.280	6.830	23.840	 H	1	UNK0	0.000	
3	 H02	3.970	15.400	25.810	 H	1	UNK0	0.000	
4	 H18	-0.860	10.900	27.820	 H	1	UNK0	0.000	
5	 H04	8.120	11.600	22.350	 H	1	UNK0	0.000	
6	 H03	5.040	16.710	26.260	 H	1	UNK0	0.000	
7	 H07	7.330	7.490	25.200	 H	1	UNK0	0.000	
8	 H06	8.970	8.090	24.890	 H	1	UNK0	0.000	
9	 H01	9.180	15.550	24.710	 H	1	UNK0	0.000	
10	 H05	6.650	10.650	22.010	 H	1	UNK0	0.000	
11	 H11	4.550	9.980	23.840	 H	1	UNK0	0.000	
12	 H10	8.230	10.350	24.680	 H	1	UNK0	0.000	
13	 H09	6.910	8.500	22.630	 H	1	UNK0	0.000	
14	 H12	4.260	10.770	22.270	 H	1	UNK0	0.000	
15	 H16	2.850	9.850	25.440	 H	1	UNK0	0.000	
16	 H15	-0.830	11.970	24.820	 H	1	UNK0	0.000	
17	 H14	0.140	13.070	22.840	 H	1	UNK0	0.000	
18	 H17	-1.600	9.870	26.580	 H	1	UNK0	0.000	
19	 H13	2.470	12.580	22.160	 H	1	UNK0	0.000	
20	  N1	6.450	12.110	23.510	N.pl3	1	UNK0	0.000	
21	  C1	5.110	12.030	23.760	C.2	1	UNK0	0.000	
22	  N2	4.720	13.090	24.420	N.2	1	UNK0	0.000	
23	  C2	5.780	13.910	24.610	C.2	1	UNK0	0.000	
24	  C3	6.900	13.290	24.030	C.2	1	UNK0	0.000	
25	  N3	8.080	13.900	24.090	N.2	1	UNK0	0.000	
26	  C4	8.200	15.080	24.680	C.2	1	UNK0	0.000	
27	  N4	7.170	15.690	25.240	N.2	1	UNK0	0.000	
28	  C5	5.960	15.160	25.230	C.2	1	UNK0	0.000	
29	  N5	4.890	15.820	25.820	N.pl3	1	UNK0	0.000	
30	  C6	7.250	11.110	22.800	C.3	1	UNK0	0.000	
31	  C7	8.060	7.730	24.420	C.3	1	UNK0	0.000	
32	  C8	7.500	8.790	23.510	C.2	1	UNK0	0.000	
33	  C9	7.710	10.060	23.770	C.2	1	UNK0	0.000	
34	 C10	4.210	10.890	23.350	C.3	1	UNK0	0.000	
35	 C11	2.800	11.190	23.770	C.2	1	UNK0	0.000	
36	 C12	2.040	12.090	23.040	C.2	1	UNK0	0.000	
37	 C13	0.740	12.370	23.420	C.2	1	UNK0	0.000	
38	 C14	0.190	11.750	24.530	C.2	1	UNK0	0.000	
39	 C15	0.950	10.850	25.260	C.2	1	UNK0	0.000	
40	 C16	2.250	10.570	24.870	C.2	1	UNK0	0.000	
41	  O1	0.420	10.230	26.350	O.3	1	UNK0	0.000	
42	 C17	-0.880	10.660	26.760	C.3	1	UNK0	0.000	
@<TRIPOS>BOND
1 20 21 1
2 20 24 1
3 20 30 1
4 21 22 2
5 21 34 1
6 22 23 1
7 23 24 2
8 23 28 1
9 24 25 1
10 25 26 2
11 9 26 1
12 26 27 1
13 27 28 2
14 28 29 1
15 3 29 1
16 6 29 1
17 5 30 1
18 10 30 1
19 30 33 1
20 2 31 1
21 7 31 1
22 8 31 1
23 31 32 1
24 13 32 1
25 32 33 2
26 12 33 1
27 11 34 1
28 14 34 1
29 34 35 1
30 35 36 2
31 35 40 1
32 19 36 1
33 36 37 1
34 17 37 1
35 37 38 2
36 16 38 1
37 38 39 1
38 39 40 2
39 39 41 1
40 15 40 1
41 41 42 1
42 1 42 1
43 4 42 1
44 18 42 1
@<TRIPOS>SUBSTRUCTURE
1	UNK0	1	GROUP	1 ****	UNK
