# created with PyMOL 2.5.0
@<TRIPOS>MOLECULE
ZINC03832016
42 44 1                 
SMALL
USER_CHARGES
@<TRIPOS>ATOM
1	 H19	-2.450	12.570	24.930	 H	1	UNK0	0.000	
2	 H08	6.260	6.790	24.050	 H	1	UNK0	0.000	
3	 H02	5.780	16.180	27.390	 H	1	UNK0	0.000	
4	 H18	-1.700	13.420	26.340	 H	1	UNK0	0.000	
5	 H04	8.000	11.370	23.400	 H	1	UNK0	0.000	
6	 H03	7.330	16.910	27.620	 H	1	UNK0	0.000	
7	 H07	4.780	7.450	24.770	 H	1	UNK0	0.000	
8	 H06	6.340	7.650	25.600	 H	1	UNK0	0.000	
9	 H01	10.380	14.580	25.760	 H	1	UNK0	0.000	
10	 H05	6.370	11.270	22.700	 H	1	UNK0	0.000	
11	 H11	3.930	10.960	25.050	 H	1	UNK0	0.000	
12	 H10	7.200	9.850	25.350	 H	1	UNK0	0.000	
13	 H09	5.590	8.960	22.890	 H	1	UNK0	0.000	
14	 H12	4.110	11.420	23.360	 H	1	UNK0	0.000	
15	 H16	1.690	10.900	25.580	 H	1	UNK0	0.000	
16	 H15	-0.990	14.000	24.300	 H	1	UNK0	0.000	
17	 H14	0.860	15.140	23.120	 H	1	UNK0	0.000	
18	 H17	-2.590	11.910	26.580	 H	1	UNK0	0.000	
19	 H13	3.140	14.170	23.170	 H	1	UNK0	0.000	
20	  N1	6.540	12.340	24.410	N.pl3	1	UNK0	0.000	
21	  C1	5.080	12.690	24.710	C.2	1	UNK0	0.000	
22	  N2	5.060	13.920	25.480	N.2	1	UNK0	0.000	
23	  C2	6.590	14.380	25.680	C.2	1	UNK0	0.000	
24	  C3	7.470	13.380	25.010	C.2	1	UNK0	0.000	
25	  N3	8.820	13.420	24.990	N.2	1	UNK0	0.000	
26	  C4	9.290	14.490	25.710	C.2	1	UNK0	0.000	
27	  N4	8.610	15.480	26.340	N.2	1	UNK0	0.000	
28	  C5	7.250	15.450	26.310	C.2	1	UNK0	0.000	
29	  N5	6.670	16.500	26.980	N.pl3	1	UNK0	0.000	
30	  C6	6.930	11.240	23.640	C.3	1	UNK0	0.000	
31	  C7	5.850	7.630	24.620	C.3	1	UNK0	0.000	
32	  C8	6.060	8.900	23.880	C.2	1	UNK0	0.000	
33	  C9	6.750	9.930	24.370	C.2	1	UNK0	0.000	
34	 C10	3.930	11.820	24.380	C.3	1	UNK0	0.000	
35	 C11	2.580	12.460	24.370	C.2	1	UNK0	0.000	
36	 C12	2.320	13.660	23.670	C.2	1	UNK0	0.000	
37	 C13	1.050	14.200	23.650	C.2	1	UNK0	0.000	
38	 C14	-0.000	13.570	24.320	C.2	1	UNK0	0.000	
39	 C15	0.240	12.380	25.030	C.2	1	UNK0	0.000	
40	 C16	1.520	11.830	25.030	C.2	1	UNK0	0.000	
41	  O1	-0.740	11.680	25.720	O.3	1	UNK0	0.000	
42	 C17	-1.930	12.450	25.900	C.3	1	UNK0	0.000	
@<TRIPOS>BOND
1 20 21 1
2 20 24 1
3 20 30 1
4 21 22 2
5 21 34 1
6 22 23 1
7 23 24 2
8 23 28 1
9 24 25 1
10 25 26 2
11 9 26 1
12 26 27 1
13 27 28 2
14 28 29 1
15 3 29 1
16 6 29 1
17 5 30 1
18 10 30 1
19 30 33 1
20 2 31 1
21 7 31 1
22 8 31 1
23 31 32 1
24 13 32 1
25 32 33 2
26 12 33 1
27 11 34 1
28 14 34 1
29 34 35 1
30 35 36 2
31 35 40 1
32 19 36 1
33 36 37 1
34 17 37 1
35 37 38 2
36 16 38 1
37 38 39 1
38 39 40 2
39 39 41 1
40 15 40 1
41 41 42 1
42 1 42 1
43 4 42 1
44 18 42 1
@<TRIPOS>SUBSTRUCTURE
1	UNK0	1	GROUP	1 ****	UNK
