# created with PyMOL 2.5.0
@<TRIPOS>MOLECULE
ZINC03832016
42 44 1                 
SMALL
USER_CHARGES
@<TRIPOS>ATOM
1	 H19	-3.970	10.340	27.460	 H	1	UNK0	0.000	
2	 H08	7.140	8.370	26.680	 H	1	UNK0	0.000	
3	 H02	5.380	17.450	25.650	 H	1	UNK0	0.000	
4	 H18	-3.570	10.260	25.740	 H	1	UNK0	0.000	
5	 H04	5.910	11.010	23.070	 H	1	UNK0	0.000	
6	 H03	3.910	16.600	25.910	 H	1	UNK0	0.000	
7	 H07	6.630	6.910	25.810	 H	1	UNK0	0.000	
8	 H06	5.590	7.600	27.080	 H	1	UNK0	0.000	
9	 H01	8.390	14.910	23.960	 H	1	UNK0	0.000	
10	 H05	4.350	10.270	23.490	 H	1	UNK0	0.000	
11	 H11	2.690	10.900	26.600	 H	1	UNK0	0.000	
12	 H10	6.800	10.350	25.390	 H	1	UNK0	0.000	
13	 H09	4.700	8.210	24.770	 H	1	UNK0	0.000	
14	 H12	2.830	10.240	24.980	 H	1	UNK0	0.000	
15	 H16	0.490	10.720	27.220	 H	1	UNK0	0.000	
16	 H15	-2.700	11.850	24.570	 H	1	UNK0	0.000	
17	 H14	-1.070	12.420	22.820	 H	1	UNK0	0.000	
18	 H17	-3.780	11.850	26.580	 H	1	UNK0	0.000	
19	 H13	1.370	12.160	23.250	 H	1	UNK0	0.000	
20	  N1	4.820	12.000	24.500	N.pl3	1	UNK0	0.000	
21	  C1	3.490	12.240	25.200	C.2	1	UNK0	0.000	
22	  N2	3.460	13.610	25.640	N.2	1	UNK0	0.000	
23	  C2	4.860	14.280	25.240	C.2	1	UNK0	0.000	
24	  C3	5.680	13.240	24.520	C.2	1	UNK0	0.000	
25	  N3	6.930	13.420	24.050	N.2	1	UNK0	0.000	
26	  C4	7.380	14.680	24.300	C.2	1	UNK0	0.000	
27	  N4	6.740	15.730	24.910	N.2	1	UNK0	0.000	
28	  C5	5.500	15.520	25.390	C.2	1	UNK0	0.000	
29	  N5	4.920	16.620	26.010	N.pl3	1	UNK0	0.000	
30	  C6	5.240	10.760	23.900	C.3	1	UNK0	0.000	
31	  C7	6.270	7.840	26.260	C.3	1	UNK0	0.000	
32	  C8	5.570	8.660	25.230	C.2	1	UNK0	0.000	
33	  C9	5.950	9.900	24.900	C.2	1	UNK0	0.000	
34	 C10	2.560	11.140	25.540	C.3	1	UNK0	0.000	
35	 C11	1.110	11.430	25.270	C.2	1	UNK0	0.000	
36	 C12	0.660	11.900	24.030	C.2	1	UNK0	0.000	
37	 C13	-0.710	12.050	23.780	C.2	1	UNK0	0.000	
38	 C14	-1.640	11.720	24.770	C.2	1	UNK0	0.000	
39	 C15	-1.200	11.240	26.010	C.2	1	UNK0	0.000	
40	 C16	0.170	11.110	26.260	C.2	1	UNK0	0.000	
41	  O1	-2.030	10.850	27.050	O.3	1	UNK0	0.000	
42	 C17	-3.410	10.840	26.660	C.3	1	UNK0	0.000	
@<TRIPOS>BOND
1 20 21 1
2 20 24 1
3 20 30 1
4 21 22 2
5 21 34 1
6 22 23 1
7 23 24 2
8 23 28 1
9 24 25 1
10 25 26 2
11 9 26 1
12 26 27 1
13 27 28 2
14 28 29 1
15 3 29 1
16 6 29 1
17 5 30 1
18 10 30 1
19 30 33 1
20 2 31 1
21 7 31 1
22 8 31 1
23 31 32 1
24 13 32 1
25 32 33 2
26 12 33 1
27 11 34 1
28 14 34 1
29 34 35 1
30 35 36 2
31 35 40 1
32 19 36 1
33 36 37 1
34 17 37 1
35 37 38 2
36 16 38 1
37 38 39 1
38 39 40 2
39 39 41 1
40 15 40 1
41 41 42 1
42 1 42 1
43 4 42 1
44 18 42 1
@<TRIPOS>SUBSTRUCTURE
1	UNK0	1	GROUP	1 ****	UNK
