# created with PyMOL 2.5.0
@<TRIPOS>MOLECULE
ZINC03832016
42 44 1                 
SMALL
USER_CHARGES
@<TRIPOS>ATOM
1	 H19	-1.440	11.570	26.490	 H	1	UNK0	0.000	
2	 H08	8.460	6.870	23.680	 H	1	UNK0	0.000	
3	 H02	4.100	15.510	26.190	 H	1	UNK0	0.000	
4	 H18	-1.340	10.370	27.780	 H	1	UNK0	0.000	
5	 H04	7.870	11.630	22.380	 H	1	UNK0	0.000	
6	 H03	5.290	16.720	26.450	 H	1	UNK0	0.000	
7	 H07	7.000	6.960	24.690	 H	1	UNK0	0.000	
8	 H06	8.430	7.920	25.110	 H	1	UNK0	0.000	
9	 H01	9.060	15.450	24.810	 H	1	UNK0	0.000	
10	 H05	6.420	10.700	22.000	 H	1	UNK0	0.000	
11	 H11	4.310	9.840	23.960	 H	1	UNK0	0.000	
12	 H10	8.280	10.200	24.430	 H	1	UNK0	0.000	
13	 H09	6.640	8.340	22.620	 H	1	UNK0	0.000	
14	 H12	4.070	10.490	22.340	 H	1	UNK0	0.000	
15	 H16	2.480	9.740	25.490	 H	1	UNK0	0.000	
16	 H15	-1.170	11.850	24.600	 H	1	UNK0	0.000	
17	 H14	-0.140	12.840	22.630	 H	1	UNK0	0.000	
18	 H17	-1.860	9.870	26.150	 H	1	UNK0	0.000	
19	 H13	2.220	12.310	22.070	 H	1	UNK0	0.000	
20	  N1	6.250	11.970	23.600	N.pl3	1	UNK0	0.000	
21	  C1	4.750	11.910	23.770	C.2	1	UNK0	0.000	
22	  N2	4.340	13.080	24.490	N.2	1	UNK0	0.000	
23	  C2	5.580	14.010	24.690	C.2	1	UNK0	0.000	
24	  C3	6.760	13.300	24.130	C.2	1	UNK0	0.000	
25	  N3	8.000	13.790	24.150	N.2	1	UNK0	0.000	
26	  C4	8.070	15.010	24.750	C.2	1	UNK0	0.000	
27	  N4	7.070	15.770	25.280	N.2	1	UNK0	0.000	
28	  C5	5.810	15.280	25.240	C.2	1	UNK0	0.000	
29	  N5	4.840	16.080	25.800	N.pl3	1	UNK0	0.000	
30	  C6	7.050	11.060	22.810	C.3	1	UNK0	0.000	
31	  C7	7.830	7.540	24.280	C.3	1	UNK0	0.000	
32	  C8	7.300	8.640	23.430	C.2	1	UNK0	0.000	
33	  C9	7.600	9.930	23.630	C.2	1	UNK0	0.000	
34	 C10	3.940	10.710	23.400	C.3	1	UNK0	0.000	
35	 C11	2.490	10.930	23.690	C.2	1	UNK0	0.000	
36	 C12	1.740	11.820	22.900	C.2	1	UNK0	0.000	
37	 C13	0.430	12.130	23.230	C.2	1	UNK0	0.000	
38	 C14	-0.160	11.570	24.370	C.2	1	UNK0	0.000	
39	 C15	0.590	10.710	25.190	C.2	1	UNK0	0.000	
40	 C16	1.900	10.380	24.830	C.2	1	UNK0	0.000	
41	  O1	0.170	10.200	26.410	O.3	1	UNK0	0.000	
42	 C17	-1.190	10.530	26.710	C.3	1	UNK0	0.000	
@<TRIPOS>BOND
1 20 21 1
2 20 24 1
3 20 30 1
4 21 22 2
5 21 34 1
6 22 23 1
7 23 24 2
8 23 28 1
9 24 25 1
10 25 26 2
11 9 26 1
12 26 27 1
13 27 28 2
14 28 29 1
15 3 29 1
16 6 29 1
17 5 30 1
18 10 30 1
19 30 33 1
20 2 31 1
21 7 31 1
22 8 31 1
23 31 32 1
24 13 32 1
25 32 33 2
26 12 33 1
27 11 34 1
28 14 34 1
29 34 35 1
30 35 36 2
31 35 40 1
32 19 36 1
33 36 37 1
34 17 37 1
35 37 38 2
36 16 38 1
37 38 39 1
38 39 40 2
39 39 41 1
40 15 40 1
41 41 42 1
42 1 42 1
43 4 42 1
44 18 42 1
@<TRIPOS>SUBSTRUCTURE
1	UNK0	1	GROUP	1 ****	UNK
