# created with PyMOL 2.5.0
@<TRIPOS>MOLECULE
ZINC03832016
42 44 1                 
SMALL
USER_CHARGES
@<TRIPOS>ATOM
1	 H19	-0.970	8.170	26.890	 H	1	UNK0	0.000	
2	 H08	9.550	6.290	24.800	 H	1	UNK0	0.000	
3	 H02	5.080	15.600	26.530	 H	1	UNK0	0.000	
4	 H18	-0.400	6.500	26.760	 H	1	UNK0	0.000	
5	 H04	8.770	11.040	23.750	 H	1	UNK0	0.000	
6	 H03	6.390	16.460	27.290	 H	1	UNK0	0.000	
7	 H07	8.200	6.320	25.970	 H	1	UNK0	0.000	
8	 H06	9.660	7.290	26.250	 H	1	UNK0	0.000	
9	 H01	10.110	14.420	26.880	 H	1	UNK0	0.000	
10	 H05	7.330	10.070	23.410	 H	1	UNK0	0.000	
11	 H11	5.340	9.490	25.570	 H	1	UNK0	0.000	
12	 H10	9.200	9.620	25.840	 H	1	UNK0	0.000	
13	 H09	7.730	7.760	23.890	 H	1	UNK0	0.000	
14	 H12	5.130	9.620	23.850	 H	1	UNK0	0.000	
15	 H16	3.480	8.210	26.030	 H	1	UNK0	0.000	
16	 H15	-0.400	10.010	25.880	 H	1	UNK0	0.000	
17	 H14	0.530	11.970	24.680	 H	1	UNK0	0.000	
18	 H17	-0.370	7.540	25.320	 H	1	UNK0	0.000	
19	 H13	2.960	12.080	24.180	 H	1	UNK0	0.000	
20	  N1	7.170	11.370	24.980	N.pl3	1	UNK0	0.000	
21	  C1	5.650	11.400	24.970	C.2	1	UNK0	0.000	
22	  N2	5.230	12.650	25.530	N.2	1	UNK0	0.000	
23	  C2	6.540	13.440	26.000	C.2	1	UNK0	0.000	
24	  C3	7.730	12.600	25.650	C.2	1	UNK0	0.000	
25	  N3	9.020	12.900	25.950	N.2	1	UNK0	0.000	
26	  C4	9.110	14.100	26.580	C.2	1	UNK0	0.000	
27	  N4	8.120	14.980	26.930	N.2	1	UNK0	0.000	
28	  C5	6.840	14.650	26.670	C.2	1	UNK0	0.000	
29	  N5	5.920	15.580	27.110	N.pl3	1	UNK0	0.000	
30	  C6	7.970	10.450	24.210	C.3	1	UNK0	0.000	
31	  C7	8.980	6.930	25.490	C.3	1	UNK0	0.000	
32	  C8	8.360	8.050	24.730	C.2	1	UNK0	0.000	
33	  C9	8.560	9.340	25.020	C.2	1	UNK0	0.000	
34	 C10	4.900	10.130	24.800	C.3	1	UNK0	0.000	
35	 C11	3.410	10.150	25.060	C.2	1	UNK0	0.000	
36	 C12	2.550	11.200	24.670	C.2	1	UNK0	0.000	
37	 C13	1.180	11.150	24.960	C.2	1	UNK0	0.000	
38	 C14	0.660	10.040	25.640	C.2	1	UNK0	0.000	
39	 C15	1.510	9.000	26.020	C.2	1	UNK0	0.000	
40	 C16	2.860	9.050	25.720	C.2	1	UNK0	0.000	
41	  O1	1.090	7.920	26.790	O.3	1	UNK0	0.000	
42	 C17	-0.240	7.520	26.390	C.3	1	UNK0	0.000	
@<TRIPOS>BOND
1 20 21 1
2 20 24 1
3 20 30 1
4 21 22 2
5 21 34 1
6 22 23 1
7 23 24 2
8 23 28 1
9 24 25 1
10 25 26 2
11 9 26 1
12 26 27 1
13 27 28 2
14 28 29 1
15 3 29 1
16 6 29 1
17 5 30 1
18 10 30 1
19 30 33 1
20 2 31 1
21 7 31 1
22 8 31 1
23 31 32 1
24 13 32 1
25 32 33 2
26 12 33 1
27 11 34 1
28 14 34 1
29 34 35 1
30 35 36 2
31 35 40 1
32 19 36 1
33 36 37 1
34 17 37 1
35 37 38 2
36 16 38 1
37 38 39 1
38 39 40 2
39 39 41 1
40 15 40 1
41 41 42 1
42 1 42 1
43 4 42 1
44 18 42 1
@<TRIPOS>SUBSTRUCTURE
1	UNK0	1	GROUP	1 ****	UNK
