# created with PyMOL 2.5.0
@<TRIPOS>MOLECULE
ZINC03832016
42 44 1                 
SMALL
USER_CHARGES
@<TRIPOS>ATOM
1	 H19	1.600	10.530	28.050	 H	1	UNK0	0.000	
2	 H08	6.090	5.910	23.790	 H	1	UNK0	0.000	
3	 H02	8.750	13.380	28.940	 H	1	UNK0	0.000	
4	 H18	1.400	8.820	27.510	 H	1	UNK0	0.000	
5	 H04	9.110	10.160	23.280	 H	1	UNK0	0.000	
6	 H03	9.980	14.480	28.590	 H	1	UNK0	0.000	
7	 H07	7.810	5.830	24.210	 H	1	UNK0	0.000	
8	 H06	7.310	5.660	22.520	 H	1	UNK0	0.000	
9	 H01	11.520	13.700	24.610	 H	1	UNK0	0.000	
10	 H05	7.390	10.310	23.020	 H	1	UNK0	0.000	
11	 H11	5.690	9.350	27.230	 H	1	UNK0	0.000	
12	 H10	8.720	8.000	24.640	 H	1	UNK0	0.000	
13	 H09	6.500	8.060	22.520	 H	1	UNK0	0.000	
14	 H12	6.230	8.550	25.790	 H	1	UNK0	0.000	
15	 H16	3.410	9.730	27.240	 H	1	UNK0	0.000	
16	 H15	1.340	10.700	23.590	 H	1	UNK0	0.000	
17	 H14	3.480	10.610	22.340	 H	1	UNK0	0.000	
18	 H17	-0.020	9.840	27.830	 H	1	UNK0	0.000	
19	 H13	5.590	10.090	23.610	 H	1	UNK0	0.000	
20	  N1	8.020	10.670	24.950	N.pl3	1	UNK0	0.000	
21	  C1	6.980	10.540	26.070	C.2	1	UNK0	0.000	
22	  N2	7.280	11.520	27.070	N.2	1	UNK0	0.000	
23	  C2	8.560	12.350	26.580	C.2	1	UNK0	0.000	
24	  C3	8.980	11.790	25.260	C.2	1	UNK0	0.000	
25	  N3	10.040	12.240	24.530	N.2	1	UNK0	0.000	
26	  C4	10.670	13.270	25.160	C.2	1	UNK0	0.000	
27	  N4	10.410	13.860	26.360	N.2	1	UNK0	0.000	
28	  C5	9.340	13.420	27.060	C.2	1	UNK0	0.000	
29	  N5	9.120	14.060	28.260	N.pl3	1	UNK0	0.000	
30	  C6	8.130	9.920	23.720	C.3	1	UNK0	0.000	
31	  C7	7.100	6.180	23.460	C.3	1	UNK0	0.000	
32	  C8	7.190	7.640	23.250	C.2	1	UNK0	0.000	
33	  C9	8.040	8.440	23.910	C.2	1	UNK0	0.000	
34	 C10	5.910	9.510	26.170	C.3	1	UNK0	0.000	
35	 C11	4.640	9.910	25.480	C.2	1	UNK0	0.000	
36	 C12	4.640	10.150	24.110	C.2	1	UNK0	0.000	
37	 C13	3.470	10.440	23.420	C.2	1	UNK0	0.000	
38	 C14	2.260	10.490	24.120	C.2	1	UNK0	0.000	
39	 C15	2.230	10.230	25.480	C.2	1	UNK0	0.000	
40	 C16	3.420	9.940	26.170	C.2	1	UNK0	0.000	
41	  O1	0.970	10.270	26.080	O.3	1	UNK0	0.000	
42	 C17	1.010	9.840	27.440	C.3	1	UNK0	0.000	
@<TRIPOS>BOND
1 20 21 1
2 20 24 1
3 20 30 1
4 21 22 2
5 21 34 1
6 22 23 1
7 23 24 2
8 23 28 1
9 24 25 1
10 25 26 2
11 9 26 1
12 26 27 1
13 27 28 2
14 28 29 1
15 3 29 1
16 6 29 1
17 5 30 1
18 10 30 1
19 30 33 1
20 2 31 1
21 7 31 1
22 8 31 1
23 31 32 1
24 13 32 1
25 32 33 2
26 12 33 1
27 11 34 1
28 14 34 1
29 34 35 1
30 35 36 2
31 35 40 1
32 19 36 1
33 36 37 1
34 17 37 1
35 37 38 2
36 16 38 1
37 38 39 1
38 39 40 2
39 39 41 1
40 15 40 1
41 41 42 1
42 1 42 1
43 4 42 1
44 18 42 1
@<TRIPOS>SUBSTRUCTURE
1	UNK0	1	GROUP	1 ****	UNK
