# created with PyMOL 2.5.0
@<TRIPOS>MOLECULE
ZINC03832016
42 44 1                 
SMALL
USER_CHARGES
@<TRIPOS>ATOM
1	 H19	0.920	11.720	26.820	 H	1	UNK0	0.000	
2	 H08	9.250	6.510	24.140	 H	1	UNK0	0.000	
3	 H02	6.100	15.240	27.580	 H	1	UNK0	0.000	
4	 H18	0.680	10.040	26.220	 H	1	UNK0	0.000	
5	 H04	8.990	11.330	23.160	 H	1	UNK0	0.000	
6	 H03	7.440	16.260	27.860	 H	1	UNK0	0.000	
7	 H07	7.830	6.620	25.210	 H	1	UNK0	0.000	
8	 H06	9.330	7.460	25.640	 H	1	UNK0	0.000	
9	 H01	11.070	14.230	26.290	 H	1	UNK0	0.000	
10	 H05	7.390	10.610	22.850	 H	1	UNK0	0.000	
11	 H11	4.820	10.180	25.010	 H	1	UNK0	0.000	
12	 H10	9.240	9.780	25.200	 H	1	UNK0	0.000	
13	 H09	7.550	8.170	23.210	 H	1	UNK0	0.000	
14	 H12	5.340	10.550	23.370	 H	1	UNK0	0.000	
15	 H16	2.510	10.390	25.250	 H	1	UNK0	0.000	
16	 H15	0.340	13.560	23.350	 H	1	UNK0	0.000	
17	 H14	2.450	14.420	22.350	 H	1	UNK0	0.000	
18	 H17	-0.710	11.020	26.720	 H	1	UNK0	0.000	
19	 H13	4.590	13.250	22.800	 H	1	UNK0	0.000	
20	  N1	7.530	11.790	24.530	N.pl3	1	UNK0	0.000	
21	  C1	6.050	11.890	24.870	C.2	1	UNK0	0.000	
22	  N2	5.880	12.930	25.830	N.2	1	UNK0	0.000	
23	  C2	7.330	13.550	26.140	C.2	1	UNK0	0.000	
24	  C3	8.330	12.820	25.300	C.2	1	UNK0	0.000	
25	  N3	9.660	13.060	25.300	N.2	1	UNK0	0.000	
26	  C4	10.000	14.030	26.200	C.2	1	UNK0	0.000	
27	  N4	9.190	14.810	26.970	N.2	1	UNK0	0.000	
28	  C5	7.860	14.550	26.970	C.2	1	UNK0	0.000	
29	  N5	7.090	15.310	27.830	N.pl3	1	UNK0	0.000	
30	  C6	8.130	10.840	23.630	C.3	1	UNK0	0.000	
31	  C7	8.680	7.170	24.810	C.3	1	UNK0	0.000	
32	  C8	8.210	8.360	24.050	C.2	1	UNK0	0.000	
33	  C9	8.570	9.620	24.360	C.2	1	UNK0	0.000	
34	 C10	4.990	11.000	24.310	C.3	1	UNK0	0.000	
35	 C11	3.700	11.720	24.030	C.2	1	UNK0	0.000	
36	 C12	3.670	12.860	23.210	C.2	1	UNK0	0.000	
37	 C13	2.460	13.520	22.950	C.2	1	UNK0	0.000	
38	 C14	1.280	13.050	23.520	C.2	1	UNK0	0.000	
39	 C15	1.310	11.940	24.360	C.2	1	UNK0	0.000	
40	 C16	2.500	11.260	24.610	C.2	1	UNK0	0.000	
41	  O1	0.090	11.540	24.900	O.3	1	UNK0	0.000	
42	 C17	0.270	11.050	26.240	C.3	1	UNK0	0.000	
@<TRIPOS>BOND
1 20 21 1
2 20 24 1
3 20 30 1
4 21 22 2
5 21 34 1
6 22 23 1
7 23 24 2
8 23 28 1
9 24 25 1
10 25 26 2
11 9 26 1
12 26 27 1
13 27 28 2
14 28 29 1
15 3 29 1
16 6 29 1
17 5 30 1
18 10 30 1
19 30 33 1
20 2 31 1
21 7 31 1
22 8 31 1
23 31 32 1
24 13 32 1
25 32 33 2
26 12 33 1
27 11 34 1
28 14 34 1
29 34 35 1
30 35 36 2
31 35 40 1
32 19 36 1
33 36 37 1
34 17 37 1
35 37 38 2
36 16 38 1
37 38 39 1
38 39 40 2
39 39 41 1
40 15 40 1
41 41 42 1
42 1 42 1
43 4 42 1
44 18 42 1
@<TRIPOS>SUBSTRUCTURE
1	UNK0	1	GROUP	1 ****	UNK
