# created with PyMOL 2.5.0
@<TRIPOS>MOLECULE
ZINC03832016
42 44 1                 
SMALL
USER_CHARGES
@<TRIPOS>ATOM
1	 H19	-0.910	13.670	24.370	 H	1	UNK0	0.000	
2	 H08	7.780	6.930	25.020	 H	1	UNK0	0.000	
3	 H02	6.310	15.400	26.310	 H	1	UNK0	0.000	
4	 H18	-1.040	13.360	26.110	 H	1	UNK0	0.000	
5	 H04	8.850	10.640	22.420	 H	1	UNK0	0.000	
6	 H03	7.830	16.020	26.810	 H	1	UNK0	0.000	
7	 H07	7.330	5.980	23.580	 H	1	UNK0	0.000	
8	 H06	6.070	6.710	24.600	 H	1	UNK0	0.000	
9	 H01	11.070	13.900	24.890	 H	1	UNK0	0.000	
10	 H05	7.190	10.300	21.890	 H	1	UNK0	0.000	
11	 H11	4.780	10.040	24.300	 H	1	UNK0	0.000	
12	 H10	8.500	9.160	24.470	 H	1	UNK0	0.000	
13	 H09	6.440	8.080	22.470	 H	1	UNK0	0.000	
14	 H12	5.120	10.250	22.600	 H	1	UNK0	0.000	
15	 H16	3.260	12.200	25.270	 H	1	UNK0	0.000	
16	 H15	-0.320	12.300	22.900	 H	1	UNK0	0.000	
17	 H14	0.840	11.110	21.060	 H	1	UNK0	0.000	
18	 H17	-1.030	11.980	25.010	 H	1	UNK0	0.000	
19	 H13	3.200	10.450	21.330	 H	1	UNK0	0.000	
20	  N1	7.350	11.520	23.530	N.pl3	1	UNK0	0.000	
21	  C1	5.880	11.800	23.810	C.2	1	UNK0	0.000	
22	  N2	5.790	13.030	24.560	N.2	1	UNK0	0.000	
23	  C2	7.290	13.560	24.770	C.2	1	UNK0	0.000	
24	  C3	8.230	12.590	24.120	C.2	1	UNK0	0.000	
25	  N3	9.570	12.690	24.120	N.2	1	UNK0	0.000	
26	  C4	10.000	13.780	24.820	C.2	1	UNK0	0.000	
27	  N4	9.270	14.750	25.450	N.2	1	UNK0	0.000	
28	  C5	7.920	14.660	25.410	C.2	1	UNK0	0.000	
29	  N5	7.250	15.690	26.050	N.pl3	1	UNK0	0.000	
30	  C6	7.840	10.400	22.770	C.3	1	UNK0	0.000	
31	  C7	7.070	6.870	24.180	C.3	1	UNK0	0.000	
32	  C8	7.100	8.080	23.340	C.2	1	UNK0	0.000	
33	  C9	7.860	9.160	23.610	C.2	1	UNK0	0.000	
34	 C10	4.820	10.790	23.500	C.3	1	UNK0	0.000	
35	 C11	3.430	11.320	23.300	C.2	1	UNK0	0.000	
36	 C12	2.720	11.010	22.120	C.2	1	UNK0	0.000	
37	 C13	1.390	11.370	21.980	C.2	1	UNK0	0.000	
38	 C14	0.720	12.040	23.010	C.2	1	UNK0	0.000	
39	 C15	1.400	12.330	24.210	C.2	1	UNK0	0.000	
40	 C16	2.750	11.980	24.330	C.2	1	UNK0	0.000	
41	  O1	0.800	12.930	25.300	O.3	1	UNK0	0.000	
42	 C17	-0.620	12.990	25.180	C.3	1	UNK0	0.000	
@<TRIPOS>BOND
1 20 21 1
2 20 24 1
3 20 30 1
4 21 22 2
5 21 34 1
6 22 23 1
7 23 24 2
8 23 28 1
9 24 25 1
10 25 26 2
11 9 26 1
12 26 27 1
13 27 28 2
14 28 29 1
15 3 29 1
16 6 29 1
17 5 30 1
18 10 30 1
19 30 33 1
20 2 31 1
21 7 31 1
22 8 31 1
23 31 32 1
24 13 32 1
25 32 33 2
26 12 33 1
27 11 34 1
28 14 34 1
29 34 35 1
30 35 36 2
31 35 40 1
32 19 36 1
33 36 37 1
34 17 37 1
35 37 38 2
36 16 38 1
37 38 39 1
38 39 40 2
39 39 41 1
40 15 40 1
41 41 42 1
42 1 42 1
43 4 42 1
44 18 42 1
@<TRIPOS>SUBSTRUCTURE
1	UNK0	1	GROUP	1 ****	UNK
