# created with PyMOL 2.5.0
@<TRIPOS>MOLECULE
ZINC03832016
42 44 1                 
SMALL
USER_CHARGES
@<TRIPOS>ATOM
1	 H19	-1.320	10.580	26.630	 H	1	UNK0	0.000	
2	 H08	10.020	8.560	26.270	 H	1	UNK0	0.000	
3	 H02	5.860	16.440	27.290	 H	1	UNK0	0.000	
4	 H18	-0.310	11.050	28.060	 H	1	UNK0	0.000	
5	 H04	8.070	11.540	23.380	 H	1	UNK0	0.000	
6	 H03	7.390	17.120	27.720	 H	1	UNK0	0.000	
7	 H07	9.480	7.230	25.230	 H	1	UNK0	0.000	
8	 H06	8.660	7.540	26.770	 H	1	UNK0	0.000	
9	 H01	10.510	14.320	27.140	 H	1	UNK0	0.000	
10	 H05	6.670	10.550	23.800	 H	1	UNK0	0.000	
11	 H11	4.720	10.880	24.140	 H	1	UNK0	0.000	
12	 H10	9.310	10.670	25.400	 H	1	UNK0	0.000	
13	 H09	7.300	8.440	24.800	 H	1	UNK0	0.000	
14	 H12	4.390	12.250	23.090	 H	1	UNK0	0.000	
15	 H16	2.950	10.050	25.390	 H	1	UNK0	0.000	
16	 H15	-0.420	12.510	26.410	 H	1	UNK0	0.000	
17	 H14	0.670	14.430	25.360	 H	1	UNK0	0.000	
18	 H17	-0.810	9.370	27.820	 H	1	UNK0	0.000	
19	 H13	2.910	14.230	24.330	 H	1	UNK0	0.000	
20	  N1	6.960	12.250	24.960	N.pl3	1	UNK0	0.000	
21	  C1	5.520	12.740	24.830	C.2	1	UNK0	0.000	
22	  N2	5.450	14.040	25.400	N.2	1	UNK0	0.000	
23	  C2	6.880	14.400	26.010	C.2	1	UNK0	0.000	
24	  C3	7.810	13.260	25.700	C.2	1	UNK0	0.000	
25	  N3	9.120	13.230	26.020	N.2	1	UNK0	0.000	
26	  C4	9.490	14.320	26.780	C.2	1	UNK0	0.000	
27	  N4	8.760	15.420	27.090	N.2	1	UNK0	0.000	
28	  C5	7.470	15.480	26.690	C.2	1	UNK0	0.000	
29	  N5	6.810	16.640	27.010	N.pl3	1	UNK0	0.000	
30	  C6	7.510	11.100	24.210	C.3	1	UNK0	0.000	
31	  C7	9.140	8.010	25.910	C.3	1	UNK0	0.000	
32	  C8	8.180	8.910	25.210	C.2	1	UNK0	0.000	
33	  C9	8.400	10.220	25.010	C.2	1	UNK0	0.000	
34	 C10	4.450	11.940	24.140	C.3	1	UNK0	0.000	
35	 C11	3.090	12.120	24.760	C.2	1	UNK0	0.000	
36	 C12	2.420	13.340	24.750	C.2	1	UNK0	0.000	
37	 C13	1.160	13.490	25.330	C.2	1	UNK0	0.000	
38	 C14	0.550	12.370	25.940	C.2	1	UNK0	0.000	
39	 C15	1.210	11.150	25.950	C.2	1	UNK0	0.000	
40	 C16	2.460	11.000	25.360	C.2	1	UNK0	0.000	
41	  O1	0.670	9.980	26.560	O.3	1	UNK0	0.000	
42	 C17	-0.500	10.280	27.300	C.3	1	UNK0	0.000	
@<TRIPOS>BOND
1 20 21 1
2 20 24 1
3 20 30 1
4 21 22 2
5 21 34 1
6 22 23 1
7 23 24 2
8 23 28 1
9 24 25 1
10 25 26 2
11 9 26 1
12 26 27 1
13 27 28 2
14 28 29 1
15 3 29 1
16 6 29 1
17 5 30 1
18 10 30 1
19 30 33 1
20 2 31 1
21 7 31 1
22 8 31 1
23 31 32 1
24 13 32 1
25 32 33 2
26 12 33 1
27 11 34 1
28 14 34 1
29 34 35 1
30 35 36 2
31 35 40 1
32 19 36 1
33 36 37 1
34 17 37 1
35 37 38 2
36 16 38 1
37 38 39 1
38 39 40 2
39 39 41 1
40 15 40 1
41 41 42 1
42 1 42 1
43 4 42 1
44 18 42 1
@<TRIPOS>SUBSTRUCTURE
1	UNK0	1	GROUP	1 ****	UNK
