# created with PyMOL 2.5.0
@<TRIPOS>MOLECULE
ZINC03832016
42 44 1                 
SMALL
USER_CHARGES
@<TRIPOS>ATOM
1	 H19	-3.250	12.180	26.550	 H	1	UNK0	0.000	
2	 H08	5.600	6.730	23.280	 H	1	UNK0	0.000	
3	 H02	5.070	15.600	27.320	 H	1	UNK0	0.000	
4	 H18	-2.570	11.410	25.100	 H	1	UNK0	0.000	
5	 H04	6.740	11.490	22.390	 H	1	UNK0	0.000	
6	 H03	6.530	16.520	27.270	 H	1	UNK0	0.000	
7	 H07	4.280	7.270	24.330	 H	1	UNK0	0.000	
8	 H06	5.960	7.570	24.790	 H	1	UNK0	0.000	
9	 H01	9.280	14.750	24.510	 H	1	UNK0	0.000	
10	 H05	5.020	11.200	22.070	 H	1	UNK0	0.000	
11	 H11	2.850	10.830	24.890	 H	1	UNK0	0.000	
12	 H10	6.550	9.880	24.430	 H	1	UNK0	0.000	
13	 H09	4.550	8.850	22.360	 H	1	UNK0	0.000	
14	 H12	3.090	11.020	23.160	 H	1	UNK0	0.000	
15	 H16	0.990	11.910	26.020	 H	1	UNK0	0.000	
16	 H15	-1.940	13.880	23.590	 H	1	UNK0	0.000	
17	 H14	-0.380	13.860	21.660	 H	1	UNK0	0.000	
18	 H17	-3.210	13.080	25.020	 H	1	UNK0	0.000	
19	 H13	1.860	12.820	21.900	 H	1	UNK0	0.000	
20	  N1	5.420	12.280	23.780	N.pl3	1	UNK0	0.000	
21	  C1	4.040	12.500	24.360	C.2	1	UNK0	0.000	
22	  N2	4.090	13.630	25.230	N.2	1	UNK0	0.000	
23	  C2	5.590	14.190	25.200	C.2	1	UNK0	0.000	
24	  C3	6.400	13.320	24.280	C.2	1	UNK0	0.000	
25	  N3	7.710	13.480	24.010	N.2	1	UNK0	0.000	
26	  C4	8.230	14.560	24.680	C.2	1	UNK0	0.000	
27	  N4	7.620	15.410	25.550	N.2	1	UNK0	0.000	
28	  C5	6.310	15.240	25.800	C.2	1	UNK0	0.000	
29	  N5	5.760	16.090	26.770	N.pl3	1	UNK0	0.000	
30	  C6	5.790	11.220	22.850	C.3	1	UNK0	0.000	
31	  C7	5.280	7.530	23.950	C.3	1	UNK0	0.000	
32	  C8	5.210	8.820	23.210	C.2	1	UNK0	0.000	
33	  C9	5.910	9.910	23.570	C.2	1	UNK0	0.000	
34	 C10	2.910	11.570	24.080	C.3	1	UNK0	0.000	
35	 C11	1.580	12.280	23.970	C.2	1	UNK0	0.000	
36	 C12	1.190	12.860	22.750	C.2	1	UNK0	0.000	
37	 C13	-0.070	13.440	22.620	C.2	1	UNK0	0.000	
38	 C14	-0.960	13.450	23.690	C.2	1	UNK0	0.000	
39	 C15	-0.560	12.890	24.920	C.2	1	UNK0	0.000	
40	 C16	0.710	12.340	25.060	C.2	1	UNK0	0.000	
41	  O1	-1.390	12.880	26.020	O.3	1	UNK0	0.000	
42	 C17	-2.680	12.360	25.630	C.3	1	UNK0	0.000	
@<TRIPOS>BOND
1 20 21 1
2 20 24 1
3 20 30 1
4 21 22 2
5 21 34 1
6 22 23 1
7 23 24 2
8 23 28 1
9 24 25 1
10 25 26 2
11 9 26 1
12 26 27 1
13 27 28 2
14 28 29 1
15 3 29 1
16 6 29 1
17 5 30 1
18 10 30 1
19 30 33 1
20 2 31 1
21 7 31 1
22 8 31 1
23 31 32 1
24 13 32 1
25 32 33 2
26 12 33 1
27 11 34 1
28 14 34 1
29 34 35 1
30 35 36 2
31 35 40 1
32 19 36 1
33 36 37 1
34 17 37 1
35 37 38 2
36 16 38 1
37 38 39 1
38 39 40 2
39 39 41 1
40 15 40 1
41 41 42 1
42 1 42 1
43 4 42 1
44 18 42 1
@<TRIPOS>SUBSTRUCTURE
1	UNK0	1	GROUP	1 ****	UNK
