# created with PyMOL 2.5.0
@<TRIPOS>MOLECULE
ZINC03832016
42 44 1                 
SMALL
USER_CHARGES
@<TRIPOS>ATOM
1	 H19	-0.730	12.610	28.600	 H	1	UNK0	0.000	
2	 H08	7.670	7.580	23.920	 H	1	UNK0	0.000	
3	 H02	4.250	16.140	27.320	 H	1	UNK0	0.000	
4	 H18	-1.050	11.080	29.440	 H	1	UNK0	0.000	
5	 H04	6.710	12.220	22.570	 H	1	UNK0	0.000	
6	 H03	5.670	17.080	27.550	 H	1	UNK0	0.000	
7	 H07	6.400	7.670	25.150	 H	1	UNK0	0.000	
8	 H06	7.870	8.650	25.310	 H	1	UNK0	0.000	
9	 H01	8.900	15.610	25.200	 H	1	UNK0	0.000	
10	 H05	5.190	11.300	22.640	 H	1	UNK0	0.000	
11	 H11	3.400	10.780	24.180	 H	1	UNK0	0.000	
12	 H10	7.430	10.960	24.750	 H	1	UNK0	0.000	
13	 H09	5.730	9.020	23.080	 H	1	UNK0	0.000	
14	 H12	2.920	11.870	22.890	 H	1	UNK0	0.000	
15	 H16	2.210	10.860	26.420	 H	1	UNK0	0.000	
16	 H15	-1.890	12.180	26.170	 H	1	UNK0	0.000	
17	 H14	-1.470	13.120	23.950	 H	1	UNK0	0.000	
18	 H17	-1.980	11.450	28.000	 H	1	UNK0	0.000	
19	 H13	0.780	12.960	22.930	 H	1	UNK0	0.000	
20	  N1	5.450	12.720	24.100	N.pl3	1	UNK0	0.000	
21	  C1	3.980	12.800	24.470	C.2	1	UNK0	0.000	
22	  N2	3.790	13.980	25.280	N.2	1	UNK0	0.000	
23	  C2	5.220	14.690	25.430	C.2	1	UNK0	0.000	
24	  C3	6.230	13.880	24.670	C.2	1	UNK0	0.000	
25	  N3	7.540	14.170	24.550	N.2	1	UNK0	0.000	
26	  C4	7.860	15.320	25.250	C.2	1	UNK0	0.000	
27	  N4	7.060	16.110	26.010	N.2	1	UNK0	0.000	
28	  C5	5.740	15.830	26.080	C.2	1	UNK0	0.000	
29	  N5	5.010	16.670	26.900	N.pl3	1	UNK0	0.000	
30	  C6	6.010	11.710	23.230	C.3	1	UNK0	0.000	
31	  C7	7.150	8.250	24.600	C.3	1	UNK0	0.000	
32	  C8	6.470	9.330	23.820	C.2	1	UNK0	0.000	
33	  C9	6.710	10.640	24.010	C.2	1	UNK0	0.000	
34	 C10	3.010	11.790	23.980	C.3	1	UNK0	0.000	
35	 C11	1.650	11.890	24.600	C.2	1	UNK0	0.000	
36	 C12	0.620	12.550	23.920	C.2	1	UNK0	0.000	
37	 C13	-0.650	12.640	24.500	C.2	1	UNK0	0.000	
38	 C14	-0.890	12.110	25.760	C.2	1	UNK0	0.000	
39	 C15	0.150	11.470	26.460	C.2	1	UNK0	0.000	
40	 C16	1.410	11.360	25.870	C.2	1	UNK0	0.000	
41	  O1	0.020	10.890	27.710	O.3	1	UNK0	0.000	
42	 C17	-1.000	11.560	28.460	C.3	1	UNK0	0.000	
@<TRIPOS>BOND
1 20 21 1
2 20 24 1
3 20 30 1
4 21 22 2
5 21 34 1
6 22 23 1
7 23 24 2
8 23 28 1
9 24 25 1
10 25 26 2
11 9 26 1
12 26 27 1
13 27 28 2
14 28 29 1
15 3 29 1
16 6 29 1
17 5 30 1
18 10 30 1
19 30 33 1
20 2 31 1
21 7 31 1
22 8 31 1
23 31 32 1
24 13 32 1
25 32 33 2
26 12 33 1
27 11 34 1
28 14 34 1
29 34 35 1
30 35 36 2
31 35 40 1
32 19 36 1
33 36 37 1
34 17 37 1
35 37 38 2
36 16 38 1
37 38 39 1
38 39 40 2
39 39 41 1
40 15 40 1
41 41 42 1
42 1 42 1
43 4 42 1
44 18 42 1
@<TRIPOS>SUBSTRUCTURE
1	UNK0	1	GROUP	1 ****	UNK
