# created with PyMOL 2.5.0
@<TRIPOS>MOLECULE
ZINC00587692
53 55 1                 
SMALL
USER_CHARGES
@<TRIPOS>ATOM
1	 H19	10.170	0.360	19.130	 H	1	UNK0	0.000	
2	 H20	8.310	1.320	20.480	 H	1	UNK0	0.000	
3	 H06	8.800	6.600	20.550	 H	1	UNK0	0.000	
4	 H18	7.410	-0.690	16.000	 H	1	UNK0	0.000	
5	 H01	2.750	3.380	23.940	 H	1	UNK0	0.000	
6	 H22	10.830	-2.440	15.960	 H	1	UNK0	0.000	
7	 H04	0.990	2.290	24.800	 H	1	UNK0	0.000	
8	 H03	3.920	-0.970	21.890	 H	1	UNK0	0.000	
9	 H10	10.240	9.630	23.380	 H	1	UNK0	0.000	
10	 H02	1.980	-0.800	23.430	 H	1	UNK0	0.000	
11	 H08	4.750	6.780	23.400	 H	1	UNK0	0.000	
12	 H07	7.090	4.840	20.360	 H	1	UNK0	0.000	
13	 H23	9.660	-2.790	17.250	 H	1	UNK0	0.000	
14	 H09	6.470	8.550	23.570	 H	1	UNK0	0.000	
15	 H13	9.740	10.330	21.300	 H	1	UNK0	0.000	
16	 H12	9.620	8.090	24.010	 H	1	UNK0	0.000	
17	 H11	8.620	9.560	24.110	 H	1	UNK0	0.000	
18	 H14	8.730	9.350	20.210	 H	1	UNK0	0.000	
19	 H17	5.550	0.260	17.350	 H	1	UNK0	0.000	
20	 H16	6.270	0.290	21.440	 H	1	UNK0	0.000	
21	 H15	7.970	10.460	21.370	 H	1	UNK0	0.000	
22	 H05	5.840	3.480	23.130	 H	1	UNK0	0.000	
23	 H21	9.090	-2.190	15.680	 H	1	UNK0	0.000	
24	  C1	4.170	2.350	22.680	C.2	1	UNK0	0.000	
25	  C2	3.030	2.430	23.500	C.2	1	UNK0	0.000	
26	  C3	2.260	1.300	23.770	C.2	1	UNK0	0.000	
27	  C4	2.580	0.080	23.200	C.2	1	UNK0	0.000	
28	  C5	3.670	-0.010	22.340	C.2	1	UNK0	0.000	
29	  C6	4.460	1.120	22.030	C.2	1	UNK0	0.000	
30	  O1	1.180	1.370	24.600	O.3	1	UNK0	0.000	
31	  C7	4.830	4.560	21.720	C.2	1	UNK0	0.000	
32	  O2	3.910	4.700	20.920	O.2	1	UNK0	0.000	
33	  N1	5.020	3.470	22.550	N.pl3	1	UNK0	0.000	
34	  C8	7.800	7.720	22.100	C.2	1	UNK0	0.000	
35	  C9	7.920	6.650	21.190	C.2	1	UNK0	0.000	
36	 C10	6.950	5.650	21.080	C.2	1	UNK0	0.000	
37	 C11	5.800	5.680	21.870	C.2	1	UNK0	0.000	
38	 C12	5.640	6.730	22.770	C.2	1	UNK0	0.000	
39	 C13	6.620	7.730	22.870	C.2	1	UNK0	0.000	
40	 C14	9.350	9.020	23.510	C.3	1	UNK0	0.000	
41	  N2	8.770	8.710	22.200	N.pl3	1	UNK0	0.000	
42	 C15	8.810	9.780	21.210	C.3	1	UNK0	0.000	
43	  N3	5.510	0.860	21.100	N.pl3	1	UNK0	0.000	
44	 C16	5.620	1.290	19.790	C.2	1	UNK0	0.000	
45	  O3	4.820	1.990	19.190	O.2	1	UNK0	0.000	
46	 C17	6.790	0.790	19.020	C.2	1	UNK0	0.000	
47	 C18	6.560	0.260	17.750	C.2	1	UNK0	0.000	
48	 C19	7.610	-0.270	16.990	C.2	1	UNK0	0.000	
49	 C20	8.900	-0.270	17.500	C.2	1	UNK0	0.000	
50	 C21	9.150	0.320	18.750	C.2	1	UNK0	0.000	
51	 C22	8.100	0.860	19.510	C.2	1	UNK0	0.000	
52	  O4	10.000	-0.790	16.890	O.3	1	UNK0	0.000	
53	 C23	9.890	-2.130	16.420	C.3	1	UNK0	0.000	
@<TRIPOS>BOND
1 24 25 2
2 24 29 1
3 24 33 1
4 5 25 1
5 25 26 1
6 26 27 2
7 26 30 1
8 10 27 1
9 27 28 1
10 8 28 1
11 28 29 2
12 29 43 1
13 7 30 1
14 31 32 2
15 31 33 1
16 31 37 1
17 22 33 1
18 34 35 2
19 34 39 1
20 34 41 1
21 3 35 1
22 35 36 1
23 12 36 1
24 36 37 2
25 37 38 1
26 11 38 1
27 38 39 2
28 14 39 1
29 9 40 1
30 16 40 1
31 17 40 1
32 40 41 1
33 41 42 1
34 15 42 1
35 18 42 1
36 21 42 1
37 20 43 1
38 43 44 1
39 44 45 2
40 44 46 1
41 46 47 2
42 46 51 1
43 19 47 1
44 47 48 1
45 4 48 1
46 48 49 2
47 49 50 1
48 49 52 1
49 1 50 1
50 50 51 2
51 2 51 1
52 52 53 1
53 6 53 1
54 13 53 1
55 23 53 1
@<TRIPOS>SUBSTRUCTURE
1	UNK0	1	GROUP	1 ****	UNK
