# created with PyMOL 2.5.0
@<TRIPOS>MOLECULE
ZINC00587692
53 55 1                 
SMALL
USER_CHARGES
@<TRIPOS>ATOM
1	 H19	6.510	3.120	18.300	 H	1	UNK0	0.000	
2	 H20	5.420	4.690	19.820	 H	1	UNK0	0.000	
3	 H06	6.640	8.400	20.710	 H	1	UNK0	0.000	
4	 H18	4.320	-0.150	20.030	 H	1	UNK0	0.000	
5	 H01	1.260	7.150	25.580	 H	1	UNK0	0.000	
6	 H22	6.460	1.700	16.640	 H	1	UNK0	0.000	
7	 H04	-0.450	6.760	26.800	 H	1	UNK0	0.000	
8	 H03	0.520	2.690	23.590	 H	1	UNK0	0.000	
9	 H10	9.550	8.810	23.890	 H	1	UNK0	0.000	
10	 H02	-0.970	3.540	25.340	 H	1	UNK0	0.000	
11	 H08	5.170	9.130	25.390	 H	1	UNK0	0.000	
12	 H07	4.400	7.690	21.380	 H	1	UNK0	0.000	
13	 H23	7.800	1.460	17.830	 H	1	UNK0	0.000	
14	 H09	7.430	9.790	24.680	 H	1	UNK0	0.000	
15	 H13	10.030	9.390	20.830	 H	1	UNK0	0.000	
16	 H12	9.230	10.570	23.960	 H	1	UNK0	0.000	
17	 H11	10.460	9.950	22.880	 H	1	UNK0	0.000	
18	 H14	9.010	7.960	21.040	 H	1	UNK0	0.000	
19	 H17	3.230	1.390	21.610	 H	1	UNK0	0.000	
20	 H16	2.290	2.800	22.390	 H	1	UNK0	0.000	
21	 H15	8.400	9.380	20.150	 H	1	UNK0	0.000	
22	 H05	3.590	6.150	22.890	 H	1	UNK0	0.000	
23	 H21	7.370	0.180	16.690	 H	1	UNK0	0.000	
24	  C1	1.920	5.790	24.020	C.2	1	UNK0	0.000	
25	  C2	1.080	6.220	25.060	C.2	1	UNK0	0.000	
26	  C3	0.050	5.410	25.520	C.2	1	UNK0	0.000	
27	  C4	-0.170	4.150	24.980	C.2	1	UNK0	0.000	
28	  C5	0.690	3.680	23.970	C.2	1	UNK0	0.000	
29	  C6	1.740	4.480	23.480	C.2	1	UNK0	0.000	
30	  O1	-0.740	5.830	26.550	O.3	1	UNK0	0.000	
31	  C7	3.300	7.900	23.930	C.2	1	UNK0	0.000	
32	  O2	2.600	8.660	24.570	O.2	1	UNK0	0.000	
33	  N1	3.000	6.600	23.600	N.pl3	1	UNK0	0.000	
34	  C8	7.220	9.140	22.650	C.2	1	UNK0	0.000	
35	  C9	6.330	8.560	21.730	C.2	1	UNK0	0.000	
36	 C10	5.050	8.150	22.120	C.2	1	UNK0	0.000	
37	 C11	4.630	8.350	23.440	C.2	1	UNK0	0.000	
38	 C12	5.480	8.970	24.370	C.2	1	UNK0	0.000	
39	 C13	6.770	9.340	23.960	C.2	1	UNK0	0.000	
40	 C14	9.480	9.740	23.310	C.3	1	UNK0	0.000	
41	  N2	8.490	9.610	22.240	N.pl3	1	UNK0	0.000	
42	 C15	9.000	9.050	21.010	C.3	1	UNK0	0.000	
43	  N3	2.520	3.780	22.490	N.pl3	1	UNK0	0.000	
44	 C16	3.560	4.200	21.710	C.2	1	UNK0	0.000	
45	  O3	3.940	5.360	21.570	O.2	1	UNK0	0.000	
46	 C17	4.220	3.180	20.820	C.2	1	UNK0	0.000	
47	 C18	3.920	1.800	20.880	C.2	1	UNK0	0.000	
48	 C19	4.540	0.910	19.990	C.2	1	UNK0	0.000	
49	 C20	5.460	1.380	19.060	C.2	1	UNK0	0.000	
50	 C21	5.780	2.740	19.000	C.2	1	UNK0	0.000	
51	 C22	5.160	3.640	19.880	C.2	1	UNK0	0.000	
52	  O4	6.040	0.410	18.230	O.3	1	UNK0	0.000	
53	 C23	6.970	0.990	17.300	C.3	1	UNK0	0.000	
@<TRIPOS>BOND
1 24 25 2
2 24 29 1
3 24 33 1
4 5 25 1
5 25 26 1
6 26 27 2
7 26 30 1
8 10 27 1
9 27 28 1
10 8 28 1
11 28 29 2
12 29 43 1
13 7 30 1
14 31 32 2
15 31 33 1
16 31 37 1
17 22 33 1
18 34 35 2
19 34 39 1
20 34 41 1
21 3 35 1
22 35 36 1
23 12 36 1
24 36 37 2
25 37 38 1
26 11 38 1
27 38 39 2
28 14 39 1
29 9 40 1
30 16 40 1
31 17 40 1
32 40 41 1
33 41 42 1
34 15 42 1
35 18 42 1
36 21 42 1
37 20 43 1
38 43 44 1
39 44 45 2
40 44 46 1
41 46 47 2
42 46 51 1
43 19 47 1
44 47 48 1
45 4 48 1
46 48 49 2
47 49 50 1
48 49 52 1
49 1 50 1
50 50 51 2
51 2 51 1
52 52 53 1
53 6 53 1
54 13 53 1
55 23 53 1
@<TRIPOS>SUBSTRUCTURE
1	UNK0	1	GROUP	1 ****	UNK
