# created with PyMOL 2.5.0
@<TRIPOS>MOLECULE
ZINC00587692
53 55 1                 
SMALL
USER_CHARGES
@<TRIPOS>ATOM
1	 H19	9.080	2.840	17.690	 H	1	UNK0	0.000	
2	 H20	8.220	2.510	19.560	 H	1	UNK0	0.000	
3	 H06	5.790	6.880	20.060	 H	1	UNK0	0.000	
4	 H18	6.070	1.100	15.370	 H	1	UNK0	0.000	
5	 H01	3.400	1.700	24.720	 H	1	UNK0	0.000	
6	 H22	11.590	-2.370	15.380	 H	1	UNK0	0.000	
7	 H04	3.200	-0.020	26.090	 H	1	UNK0	0.000	
8	 H03	4.490	-1.720	21.320	 H	1	UNK0	0.000	
9	 H10	8.840	7.930	22.870	 H	1	UNK0	0.000	
10	 H02	3.570	-2.360	23.510	 H	1	UNK0	0.000	
11	 H08	5.310	5.590	24.820	 H	1	UNK0	0.000	
12	 H07	4.430	4.930	20.650	 H	1	UNK0	0.000	
13	 H23	10.030	-2.510	14.820	 H	1	UNK0	0.000	
14	 H09	6.690	7.530	24.210	 H	1	UNK0	0.000	
15	 H13	8.220	9.410	20.210	 H	1	UNK0	0.000	
16	 H12	7.780	9.140	23.670	 H	1	UNK0	0.000	
17	 H11	8.810	9.620	22.330	 H	1	UNK0	0.000	
18	 H14	8.120	7.650	20.100	 H	1	UNK0	0.000	
19	 H17	4.820	0.970	17.100	 H	1	UNK0	0.000	
20	 H16	5.430	-0.310	20.000	 H	1	UNK0	0.000	
21	 H15	6.720	8.680	19.690	 H	1	UNK0	0.000	
22	 H05	4.870	2.960	21.570	 H	1	UNK0	0.000	
23	 H21	10.820	-2.190	13.860	 H	1	UNK0	0.000	
24	  C1	4.150	1.410	22.700	C.2	1	UNK0	0.000	
25	  C2	3.640	1.000	23.940	C.2	1	UNK0	0.000	
26	  C3	3.450	-0.350	24.210	C.2	1	UNK0	0.000	
27	  C4	3.740	-1.320	23.270	C.2	1	UNK0	0.000	
28	  C5	4.270	-0.940	22.030	C.2	1	UNK0	0.000	
29	  C6	4.520	0.410	21.720	C.2	1	UNK0	0.000	
30	  O1	3.000	-0.750	25.450	O.3	1	UNK0	0.000	
31	  C7	4.060	3.890	23.210	C.2	1	UNK0	0.000	
32	  O2	3.420	3.920	24.250	O.2	1	UNK0	0.000	
33	  N1	4.360	2.780	22.450	N.pl3	1	UNK0	0.000	
34	  C8	6.380	7.350	22.090	C.2	1	UNK0	0.000	
35	  C9	5.700	6.600	21.110	C.2	1	UNK0	0.000	
36	 C10	4.920	5.490	21.440	C.2	1	UNK0	0.000	
37	 C11	4.790	5.120	22.790	C.2	1	UNK0	0.000	
38	 C12	5.410	5.880	23.780	C.2	1	UNK0	0.000	
39	 C13	6.200	6.970	23.430	C.2	1	UNK0	0.000	
40	 C14	8.200	8.810	22.710	C.3	1	UNK0	0.000	
41	  N2	7.130	8.500	21.760	N.pl3	1	UNK0	0.000	
42	 C15	7.570	8.560	20.360	C.3	1	UNK0	0.000	
43	  N3	5.190	0.560	20.460	N.pl3	1	UNK0	0.000	
44	 C16	5.640	1.700	19.820	C.2	1	UNK0	0.000	
45	  O3	5.460	2.860	20.160	O.2	1	UNK0	0.000	
46	 C17	6.460	1.520	18.600	C.2	1	UNK0	0.000	
47	 C18	5.870	1.210	17.390	C.2	1	UNK0	0.000	
48	 C19	6.600	1.420	16.100	C.2	1	UNK0	0.000	
49	 C20	7.470	2.580	16.640	C.2	1	UNK0	0.000	
50	 C21	8.040	2.750	17.760	C.2	1	UNK0	0.000	
51	 C22	7.660	2.150	18.630	C.2	1	UNK0	0.000	
52	  O4	8.230	-2.050	19.100	O.3	1	UNK0	0.000	
53	 C23	10.460	-1.960	14.770	C.3	1	UNK0	0.000	
@<TRIPOS>BOND
1 24 25 2
2 24 29 1
3 24 33 1
4 5 25 1
5 25 26 1
6 26 27 2
7 26 30 1
8 10 27 1
9 27 28 1
10 8 28 1
11 28 29 2
12 29 43 1
13 7 30 1
14 31 32 2
15 31 33 1
16 31 37 1
17 22 33 1
18 34 35 2
19 34 39 1
20 34 41 1
21 3 35 1
22 35 36 1
23 12 36 1
24 36 37 2
25 37 38 1
26 11 38 1
27 38 39 2
28 14 39 1
29 9 40 1
30 16 40 1
31 17 40 1
32 40 41 1
33 41 42 1
34 15 42 1
35 18 42 1
36 21 42 1
37 20 43 1
38 43 44 1
39 44 45 2
40 44 46 1
41 46 47 2
42 46 51 1
43 19 47 1
44 47 48 1
45 4 48 1
46 48 49 2
47 49 50 1
48 49 52 1
49 1 50 1
50 50 51 2
51 2 51 1
52 52 53 1
53 6 53 1
54 13 53 1
55 23 53 1
@<TRIPOS>SUBSTRUCTURE
1	UNK0	1	GROUP	1 ****	UNK
