# created with PyMOL 2.5.0
@<TRIPOS>MOLECULE
ZINC00587692
53 55 1                 
SMALL
USER_CHARGES
@<TRIPOS>ATOM
1	 H19	8.990	-0.130	18.880	 H	1	UNK0	0.000	
2	 H20	7.750	1.220	20.490	 H	1	UNK0	0.000	
3	 H06	7.480	8.060	19.880	 H	1	UNK0	0.000	
4	 H18	7.000	1.850	15.620	 H	1	UNK0	0.000	
5	 H01	3.700	4.380	24.810	 H	1	UNK0	0.000	
6	 H22	9.630	-2.160	16.910	 H	1	UNK0	0.000	
7	 H04	4.080	1.410	26.470	 H	1	UNK0	0.000	
8	 H03	4.670	0.180	22.380	 H	1	UNK0	0.000	
9	 H10	9.240	11.850	21.970	 H	1	UNK0	0.000	
10	 H02	3.960	0.140	24.720	 H	1	UNK0	0.000	
11	 H08	5.110	8.250	24.210	 H	1	UNK0	0.000	
12	 H07	5.790	6.380	20.370	 H	1	UNK0	0.000	
13	 H23	9.770	-0.990	17.050	 H	1	UNK0	0.000	
14	 H09	6.810	9.910	23.690	 H	1	UNK0	0.000	
15	 H13	8.050	10.460	19.470	 H	1	UNK0	0.000	
16	 H12	8.540	11.020	23.340	 H	1	UNK0	0.000	
17	 H11	7.480	11.810	22.150	 H	1	UNK0	0.000	
18	 H14	9.670	10.830	20.090	 H	1	UNK0	0.000	
19	 H17	5.710	3.240	17.250	 H	1	UNK0	0.000	
20	 H16	5.480	1.160	20.760	 H	1	UNK0	0.000	
21	 H15	9.240	9.150	19.780	 H	1	UNK0	0.000	
22	 H05	5.100	4.770	21.380	 H	1	UNK0	0.000	
23	 H21	8.910	-1.890	15.860	 H	1	UNK0	0.000	
24	  C1	4.320	3.580	22.870	C.2	1	UNK0	0.000	
25	  C2	3.870	3.500	24.210	C.2	1	UNK0	0.000	
26	  C3	3.760	2.270	24.850	C.2	1	UNK0	0.000	
27	  C4	4.020	1.090	24.190	C.2	1	UNK0	0.000	
28	  C5	4.440	1.120	22.860	C.2	1	UNK0	0.000	
29	  C6	4.630	2.340	22.200	C.2	1	UNK0	0.000	
30	  O1	3.540	2.210	26.200	O.3	1	UNK0	0.000	
31	  C7	4.410	6.090	22.820	C.2	1	UNK0	0.000	
32	  O2	3.650	6.330	23.750	O.2	1	UNK0	0.000	
33	  N1	4.620	4.830	22.280	N.pl3	1	UNK0	0.000	
34	  C8	7.270	9.130	21.730	C.2	1	UNK0	0.000	
35	  C9	6.940	8.130	20.810	C.2	1	UNK0	0.000	
36	 C10	5.980	7.160	21.100	C.2	1	UNK0	0.000	
37	 C11	5.310	7.180	22.340	C.2	1	UNK0	0.000	
38	 C12	5.580	8.220	23.240	C.2	1	UNK0	0.000	
39	 C13	6.560	9.170	22.940	C.2	1	UNK0	0.000	
40	 C14	8.400	11.230	22.290	C.3	1	UNK0	0.000	
41	  N2	8.370	10.010	21.500	N.pl3	1	UNK0	0.000	
42	 C15	8.850	10.110	20.130	C.3	1	UNK0	0.000	
43	  N3	5.270	2.130	20.950	N.pl3	1	UNK0	0.000	
44	 C16	5.740	2.990	19.980	C.2	1	UNK0	0.000	
45	  O3	5.430	4.160	19.820	O.2	1	UNK0	0.000	
46	 C17	6.600	2.280	18.980	C.2	1	UNK0	0.000	
47	 C18	6.430	2.500	17.610	C.2	1	UNK0	0.000	
48	 C19	7.150	1.720	16.690	C.2	1	UNK0	0.000	
49	 C20	8.030	0.730	17.140	C.2	1	UNK0	0.000	
50	 C21	8.260	0.590	18.520	C.2	1	UNK0	0.000	
51	 C22	7.560	1.350	19.430	C.2	1	UNK0	0.000	
52	  O4	8.660	-0.090	16.200	O.3	1	UNK0	0.000	
53	 C23	8.910	-1.340	16.860	C.3	1	UNK0	0.000	
@<TRIPOS>BOND
1 24 25 2
2 24 29 1
3 24 33 1
4 5 25 1
5 25 26 1
6 26 27 2
7 26 30 1
8 10 27 1
9 27 28 1
10 8 28 1
11 28 29 2
12 29 43 1
13 7 30 1
14 31 32 2
15 31 33 1
16 31 37 1
17 22 33 1
18 34 35 2
19 34 39 1
20 34 41 1
21 3 35 1
22 35 36 1
23 12 36 1
24 36 37 2
25 37 38 1
26 11 38 1
27 38 39 2
28 14 39 1
29 9 40 1
30 16 40 1
31 17 40 1
32 40 41 1
33 41 42 1
34 15 42 1
35 18 42 1
36 21 42 1
37 20 43 1
38 43 44 1
39 44 45 2
40 44 46 1
41 46 47 2
42 46 51 1
43 19 47 1
44 47 48 1
45 4 48 1
46 48 49 2
47 49 50 1
48 49 52 1
49 1 50 1
50 50 51 2
51 2 51 1
52 52 53 1
53 6 53 1
54 13 53 1
55 23 53 1
@<TRIPOS>SUBSTRUCTURE
1	UNK0	1	GROUP	1 ****	UNK
