# created with PyMOL 2.5.0
@<TRIPOS>MOLECULE
ZINC00587692
53 55 1                 
SMALL
USER_CHARGES
@<TRIPOS>ATOM
1	 H19	6.850	4.100	17.680	 H	1	UNK0	0.000	
2	 H20	5.180	4.930	19.320	 H	1	UNK0	0.000	
3	 H06	7.100	8.310	22.190	 H	1	UNK0	0.000	
4	 H18	8.410	1.390	20.640	 H	1	UNK0	0.000	
5	 H01	1.270	5.570	25.540	 H	1	UNK0	0.000	
6	 H22	10.450	1.410	17.810	 H	1	UNK0	0.000	
7	 H04	-0.590	4.290	26.000	 H	1	UNK0	0.000	
8	 H03	2.750	1.290	23.500	 H	1	UNK0	0.000	
9	 H10	10.760	9.230	24.960	 H	1	UNK0	0.000	
10	 H02	0.860	1.330	25.090	 H	1	UNK0	0.000	
11	 H08	5.420	7.600	26.790	 H	1	UNK0	0.000	
12	 H07	4.770	7.650	22.510	 H	1	UNK0	0.000	
13	 H23	10.210	2.150	19.400	 H	1	UNK0	0.000	
14	 H09	7.760	8.170	26.430	 H	1	UNK0	0.000	
15	 H13	9.050	8.710	21.950	 H	1	UNK0	0.000	
16	 H12	9.790	8.170	25.980	 H	1	UNK0	0.000	
17	 H11	9.280	9.850	25.680	 H	1	UNK0	0.000	
18	 H14	8.700	10.230	22.830	 H	1	UNK0	0.000	
19	 H17	6.770	2.200	22.290	 H	1	UNK0	0.000	
20	 H16	4.410	2.260	22.430	 H	1	UNK0	0.000	
21	 H15	10.330	9.550	22.800	 H	1	UNK0	0.000	
22	 H05	4.150	5.750	23.290	 H	1	UNK0	0.000	
23	 H21	9.390	0.600	18.970	 H	1	UNK0	0.000	
24	  C1	2.710	4.650	24.230	C.2	1	UNK0	0.000	
25	  C2	1.610	4.650	25.090	C.2	1	UNK0	0.000	
26	  C3	0.960	3.460	25.370	C.2	1	UNK0	0.000	
27	  C4	1.380	2.260	24.830	C.2	1	UNK0	0.000	
28	  C5	2.450	2.240	23.930	C.2	1	UNK0	0.000	
29	  C6	3.120	3.430	23.580	C.2	1	UNK0	0.000	
30	  O1	-0.090	3.490	26.240	O.3	1	UNK0	0.000	
31	  C7	3.640	6.860	24.940	C.2	1	UNK0	0.000	
32	  O2	3.060	6.960	26.010	O.2	1	UNK0	0.000	
33	  N1	3.470	5.810	24.050	N.pl3	1	UNK0	0.000	
34	  C8	7.620	8.310	24.290	C.2	1	UNK0	0.000	
35	  C9	6.730	8.190	23.200	C.2	1	UNK0	0.000	
36	 C10	5.410	7.820	23.390	C.2	1	UNK0	0.000	
37	 C11	4.920	7.570	24.680	C.2	1	UNK0	0.000	
38	 C12	5.770	7.780	25.790	C.2	1	UNK0	0.000	
39	 C13	7.100	8.120	25.570	C.2	1	UNK0	0.000	
40	 C14	9.740	8.970	25.250	C.3	1	UNK0	0.000	
41	  N2	8.990	8.540	24.050	N.pl3	1	UNK0	0.000	
42	 C15	9.280	9.300	22.850	C.3	1	UNK0	0.000	
43	  N3	4.190	3.210	22.650	N.pl3	1	UNK0	0.000	
44	 C16	4.820	4.150	21.850	C.2	1	UNK0	0.000	
45	  O3	4.490	5.310	21.700	O.2	1	UNK0	0.000	
46	 C17	5.830	3.600	20.900	C.2	1	UNK0	0.000	
47	 C18	6.750	2.600	21.270	C.2	1	UNK0	0.000	
48	 C19	7.700	2.150	20.340	C.2	1	UNK0	0.000	
49	 C20	7.720	2.700	19.050	C.2	1	UNK0	0.000	
50	 C21	6.810	3.680	18.690	C.2	1	UNK0	0.000	
51	 C22	5.870	4.150	19.610	C.2	1	UNK0	0.000	
52	  O4	8.620	2.310	18.060	O.3	1	UNK0	0.000	
53	 C23	9.720	1.570	18.610	C.3	1	UNK0	0.000	
@<TRIPOS>BOND
1 24 25 2
2 24 29 1
3 24 33 1
4 5 25 1
5 25 26 1
6 26 27 2
7 26 30 1
8 10 27 1
9 27 28 1
10 8 28 1
11 28 29 2
12 29 43 1
13 7 30 1
14 31 32 2
15 31 33 1
16 31 37 1
17 22 33 1
18 34 35 2
19 34 39 1
20 34 41 1
21 3 35 1
22 35 36 1
23 12 36 1
24 36 37 2
25 37 38 1
26 11 38 1
27 38 39 2
28 14 39 1
29 9 40 1
30 16 40 1
31 17 40 1
32 40 41 1
33 41 42 1
34 15 42 1
35 18 42 1
36 21 42 1
37 20 43 1
38 43 44 1
39 44 45 2
40 44 46 1
41 46 47 2
42 46 51 1
43 19 47 1
44 47 48 1
45 4 48 1
46 48 49 2
47 49 50 1
48 49 52 1
49 1 50 1
50 50 51 2
51 2 51 1
52 52 53 1
53 6 53 1
54 13 53 1
55 23 53 1
@<TRIPOS>SUBSTRUCTURE
1	UNK0	1	GROUP	1 ****	UNK
