# created with PyMOL 2.5.0
@<TRIPOS>MOLECULE
ZINC00587692
53 55 1                 
SMALL
USER_CHARGES
@<TRIPOS>ATOM
1	 H19	7.680	0.410	19.160	 H	1	UNK0	0.000	
2	 H20	6.250	1.390	20.930	 H	1	UNK0	0.000	
3	 H06	6.400	9.610	22.210	 H	1	UNK0	0.000	
4	 H18	4.460	0.740	16.330	 H	1	UNK0	0.000	
5	 H01	3.430	4.990	25.750	 H	1	UNK0	0.000	
6	 H22	6.420	-1.940	17.440	 H	1	UNK0	0.000	
7	 H04	1.390	4.470	26.740	 H	1	UNK0	0.000	
8	 H03	2.000	1.320	22.740	 H	1	UNK0	0.000	
9	 H10	8.670	11.290	24.510	 H	1	UNK0	0.000	
10	 H02	0.850	1.680	24.870	 H	1	UNK0	0.000	
11	 H08	7.480	5.520	25.180	 H	1	UNK0	0.000	
12	 H07	4.800	8.380	21.360	 H	1	UNK0	0.000	
13	 H23	7.700	-1.900	16.210	 H	1	UNK0	0.000	
14	 H09	7.800	7.050	26.400	 H	1	UNK0	0.000	
15	 H13	8.800	8.840	25.970	 H	1	UNK0	0.000	
16	 H12	7.600	11.060	23.140	 H	1	UNK0	0.000	
17	 H11	8.950	9.920	23.430	 H	1	UNK0	0.000	
18	 H14	8.250	10.430	26.460	 H	1	UNK0	0.000	
19	 H17	2.980	1.660	18.100	 H	1	UNK0	0.000	
20	 H16	4.940	3.250	21.620	 H	1	UNK0	0.000	
21	 H15	7.210	9.070	26.780	 H	1	UNK0	0.000	
22	 H05	4.960	5.610	24.480	 H	1	UNK0	0.000	
23	 H21	8.060	-1.310	17.840	 H	1	UNK0	0.000	
24	  C1	3.820	4.000	23.870	C.2	1	UNK0	0.000	
25	  C2	3.130	4.190	25.080	C.2	1	UNK0	0.000	
26	  C3	2.090	3.350	25.420	C.2	1	UNK0	0.000	
27	  C4	1.670	2.320	24.590	C.2	1	UNK0	0.000	
28	  C5	2.320	2.140	23.370	C.2	1	UNK0	0.000	
29	  C6	3.400	2.960	22.980	C.2	1	UNK0	0.000	
30	  O1	1.460	3.500	26.640	O.3	1	UNK0	0.000	
31	  C7	5.900	5.100	22.800	C.2	1	UNK0	0.000	
32	  O2	6.060	4.470	21.770	O.2	1	UNK0	0.000	
33	  N1	4.870	4.930	23.740	N.pl3	1	UNK0	0.000	
34	  C8	6.840	8.520	24.120	C.2	1	UNK0	0.000	
35	  C9	6.530	8.790	22.800	C.2	1	UNK0	0.000	
36	 C10	6.250	7.600	22.240	C.2	1	UNK0	0.000	
37	 C11	6.720	6.330	23.100	C.2	1	UNK0	0.000	
38	 C12	7.080	6.430	24.340	C.2	1	UNK0	0.000	
39	 C13	6.990	7.230	25.090	C.2	1	UNK0	0.000	
40	 C14	8.170	10.530	23.910	C.3	1	UNK0	0.000	
41	  N2	7.290	9.720	24.760	N.pl3	1	UNK0	0.000	
42	 C15	7.920	9.480	26.060	C.3	1	UNK0	0.000	
43	  N3	4.070	2.730	21.760	N.pl3	1	UNK0	0.000	
44	 C16	3.560	2.010	20.690	C.2	1	UNK0	0.000	
45	  O3	2.380	1.730	20.540	O.2	1	UNK0	0.000	
46	 C17	4.520	1.620	19.620	C.2	1	UNK0	0.000	
47	 C18	4.020	1.430	18.330	C.2	1	UNK0	0.000	
48	 C19	4.840	0.900	17.330	C.2	1	UNK0	0.000	
49	 C20	6.140	0.520	17.640	C.2	1	UNK0	0.000	
50	 C21	6.660	0.710	18.930	C.2	1	UNK0	0.000	
51	 C22	5.860	1.270	19.920	C.2	1	UNK0	0.000	
52	  O4	6.900	-0.060	16.640	O.3	1	UNK0	0.000	
53	 C23	7.280	-1.370	17.060	C.3	1	UNK0	0.000	
@<TRIPOS>BOND
1 24 25 2
2 24 29 1
3 24 33 1
4 5 25 1
5 25 26 1
6 26 27 2
7 26 30 1
8 10 27 1
9 27 28 1
10 8 28 1
11 28 29 2
12 29 43 1
13 7 30 1
14 31 32 2
15 31 33 1
16 31 37 1
17 22 33 1
18 34 35 2
19 34 39 1
20 34 41 1
21 3 35 1
22 35 36 1
23 12 36 1
24 36 37 2
25 37 38 1
26 11 38 1
27 38 39 2
28 14 39 1
29 9 40 1
30 16 40 1
31 17 40 1
32 40 41 1
33 41 42 1
34 15 42 1
35 18 42 1
36 21 42 1
37 20 43 1
38 43 44 1
39 44 45 2
40 44 46 1
41 46 47 2
42 46 51 1
43 19 47 1
44 47 48 1
45 4 48 1
46 48 49 2
47 49 50 1
48 49 52 1
49 1 50 1
50 50 51 2
51 2 51 1
52 52 53 1
53 6 53 1
54 13 53 1
55 23 53 1
@<TRIPOS>SUBSTRUCTURE
1	UNK0	1	GROUP	1 ****	UNK
