# created with PyMOL 2.5.0
@<TRIPOS>MOLECULE
ZINC00587692
53 55 1                 
SMALL
USER_CHARGES
@<TRIPOS>ATOM
1	 H19	10.730	3.120	18.620	 H	1	UNK0	0.000	
2	 H20	9.110	4.080	20.200	 H	1	UNK0	0.000	
3	 H06	8.350	8.320	21.460	 H	1	UNK0	0.000	
4	 H18	8.510	-0.570	18.560	 H	1	UNK0	0.000	
5	 H01	3.090	4.530	24.780	 H	1	UNK0	0.000	
6	 H22	9.530	-0.660	16.640	 H	1	UNK0	0.000	
7	 H04	0.770	1.960	24.590	 H	1	UNK0	0.000	
8	 H03	4.030	0.510	22.050	 H	1	UNK0	0.000	
9	 H10	11.340	10.480	24.080	 H	1	UNK0	0.000	
10	 H02	2.010	0.630	23.430	 H	1	UNK0	0.000	
11	 H08	6.810	7.190	26.020	 H	1	UNK0	0.000	
12	 H07	6.540	6.640	21.740	 H	1	UNK0	0.000	
13	 H23	11.280	-0.850	16.500	 H	1	UNK0	0.000	
14	 H09	8.630	8.790	25.710	 H	1	UNK0	0.000	
15	 H13	9.650	11.700	22.790	 H	1	UNK0	0.000	
16	 H12	10.940	8.900	24.740	 H	1	UNK0	0.000	
17	 H11	10.040	10.350	25.260	 H	1	UNK0	0.000	
18	 H14	8.400	10.770	21.950	 H	1	UNK0	0.000	
19	 H17	6.890	0.340	20.120	 H	1	UNK0	0.000	
20	 H16	5.870	1.240	21.330	 H	1	UNK0	0.000	
21	 H15	8.190	11.220	23.660	 H	1	UNK0	0.000	
22	 H05	6.230	4.610	22.760	 H	1	UNK0	0.000	
23	 H21	10.510	-1.240	18.040	 H	1	UNK0	0.000	
24	  C1	4.520	3.630	23.410	C.2	1	UNK0	0.000	
25	  C2	3.360	3.660	24.180	C.2	1	UNK0	0.000	
26	  C3	2.470	2.600	24.180	C.2	1	UNK0	0.000	
27	  C4	2.710	1.460	23.420	C.2	1	UNK0	0.000	
28	  C5	3.860	1.400	22.640	C.2	1	UNK0	0.000	
29	  C6	4.780	2.470	22.600	C.2	1	UNK0	0.000	
30	  O1	1.340	2.680	24.930	O.3	1	UNK0	0.000	
31	  C7	5.410	5.870	24.170	C.2	1	UNK0	0.000	
32	  O2	4.600	6.130	25.040	O.2	1	UNK0	0.000	
33	  N1	5.430	4.720	23.390	N.pl3	1	UNK0	0.000	
34	  C8	8.610	8.680	23.550	C.2	1	UNK0	0.000	
35	  C9	8.000	8.060	22.450	C.2	1	UNK0	0.000	
36	 C10	6.990	7.110	22.620	C.2	1	UNK0	0.000	
37	 C11	6.550	6.790	23.910	C.2	1	UNK0	0.000	
38	 C12	7.140	7.420	25.020	C.2	1	UNK0	0.000	
39	 C13	8.180	8.330	24.830	C.2	1	UNK0	0.000	
40	 C14	10.520	9.850	24.420	C.3	1	UNK0	0.000	
41	  N2	9.570	9.670	23.300	N.pl3	1	UNK0	0.000	
42	 C15	8.920	10.900	22.910	C.3	1	UNK0	0.000	
43	  N3	5.880	2.160	21.710	N.pl3	1	UNK0	0.000	
44	 C16	6.920	2.960	21.280	C.2	1	UNK0	0.000	
45	  O3	7.110	4.130	21.540	O.2	1	UNK0	0.000	
46	 C17	7.870	2.290	20.290	C.2	1	UNK0	0.000	
47	 C18	7.710	0.980	19.800	C.2	1	UNK0	0.000	
48	 C19	8.640	0.440	18.900	C.2	1	UNK0	0.000	
49	 C20	9.730	1.230	18.470	C.2	1	UNK0	0.000	
50	 C21	9.870	2.530	18.940	C.2	1	UNK0	0.000	
51	 C22	8.950	3.070	19.840	C.2	1	UNK0	0.000	
52	  O4	10.690	0.790	17.600	O.3	1	UNK0	0.000	
53	 C23	10.480	-0.570	17.180	C.3	1	UNK0	0.000	
@<TRIPOS>BOND
1 24 25 2
2 24 29 1
3 24 33 1
4 5 25 1
5 25 26 1
6 26 27 2
7 26 30 1
8 10 27 1
9 27 28 1
10 8 28 1
11 28 29 2
12 29 43 1
13 7 30 1
14 31 32 2
15 31 33 1
16 31 37 1
17 22 33 1
18 34 35 2
19 34 39 1
20 34 41 1
21 3 35 1
22 35 36 1
23 12 36 1
24 36 37 2
25 37 38 1
26 11 38 1
27 38 39 2
28 14 39 1
29 9 40 1
30 16 40 1
31 17 40 1
32 40 41 1
33 41 42 1
34 15 42 1
35 18 42 1
36 21 42 1
37 20 43 1
38 43 44 1
39 44 45 2
40 44 46 1
41 46 47 2
42 46 51 1
43 19 47 1
44 47 48 1
45 4 48 1
46 48 49 2
47 49 50 1
48 49 52 1
49 1 50 1
50 50 51 2
51 2 51 1
52 52 53 1
53 6 53 1
54 13 53 1
55 23 53 1
@<TRIPOS>SUBSTRUCTURE
1	UNK0	1	GROUP	1 ****	UNK
