# created with PyMOL 2.5.0
@<TRIPOS>MOLECULE
ZINC00587692
53 55 1                 
SMALL
USER_CHARGES
@<TRIPOS>ATOM
1	 H19	7.490	2.640	17.100	 H	1	UNK0	0.000	
2	 H20	6.090	3.780	18.770	 H	1	UNK0	0.000	
3	 H06	6.720	7.350	20.640	 H	1	UNK0	0.000	
4	 H18	4.500	-0.410	16.600	 H	1	UNK0	0.000	
5	 H01	0.540	4.930	23.680	 H	1	UNK0	0.000	
6	 H22	7.120	-0.880	14.330	 H	1	UNK0	0.000	
7	 H04	-1.340	4.230	24.320	 H	1	UNK0	0.000	
8	 H03	0.410	1.130	20.500	 H	1	UNK0	0.000	
9	 H10	10.070	8.580	23.720	 H	1	UNK0	0.000	
10	 H02	-1.420	1.480	22.120	 H	1	UNK0	0.000	
11	 H08	4.860	6.240	25.090	 H	1	UNK0	0.000	
12	 H07	4.430	6.480	20.800	 H	1	UNK0	0.000	
13	 H23	6.170	-1.420	15.720	 H	1	UNK0	0.000	
14	 H09	7.130	7.100	24.900	 H	1	UNK0	0.000	
15	 H13	9.930	8.680	21.530	 H	1	UNK0	0.000	
16	 H12	9.210	7.310	24.590	 H	1	UNK0	0.000	
17	 H11	8.490	8.930	24.420	 H	1	UNK0	0.000	
18	 H14	8.780	7.740	20.590	 H	1	UNK0	0.000	
19	 H17	3.070	0.700	18.250	 H	1	UNK0	0.000	
20	 H16	2.300	1.580	19.680	 H	1	UNK0	0.000	
21	 H15	8.310	9.320	21.260	 H	1	UNK0	0.000	
22	 H05	3.430	4.640	21.380	 H	1	UNK0	0.000	
23	 H21	5.500	-0.210	14.570	 H	1	UNK0	0.000	
24	  C1	1.640	3.920	22.100	C.2	1	UNK0	0.000	
25	  C2	0.570	4.100	22.990	C.2	1	UNK0	0.000	
26	  C3	-0.500	3.220	22.980	C.2	1	UNK0	0.000	
27	  C4	-0.560	2.150	22.100	C.2	1	UNK0	0.000	
28	  C5	0.480	1.960	21.190	C.2	1	UNK0	0.000	
29	  C6	1.580	2.830	21.150	C.2	1	UNK0	0.000	
30	  O1	-1.540	3.400	23.850	O.3	1	UNK0	0.000	
31	  C7	3.120	5.660	23.150	C.2	1	UNK0	0.000	
32	  O2	2.560	5.760	24.230	O.2	1	UNK0	0.000	
33	  N1	2.760	4.790	22.150	N.pl3	1	UNK0	0.000	
34	  C8	7.100	7.320	22.760	C.2	1	UNK0	0.000	
35	  C9	6.310	7.130	21.620	C.2	1	UNK0	0.000	
36	 C10	5.000	6.630	21.710	C.2	1	UNK0	0.000	
37	 C11	4.470	6.290	22.960	C.2	1	UNK0	0.000	
38	 C12	5.240	6.510	24.110	C.2	1	UNK0	0.000	
39	 C13	6.540	7.000	24.000	C.2	1	UNK0	0.000	
40	 C14	9.080	8.170	23.920	C.3	1	UNK0	0.000	
41	  N2	8.440	7.750	22.670	N.pl3	1	UNK0	0.000	
42	 C15	8.880	8.410	21.450	C.3	1	UNK0	0.000	
43	  N3	2.530	2.440	20.150	N.pl3	1	UNK0	0.000	
44	 C16	3.670	3.070	19.690	C.2	1	UNK0	0.000	
45	  O3	4.070	4.170	20.040	O.2	1	UNK0	0.000	
46	 C17	4.470	2.330	18.650	C.2	1	UNK0	0.000	
47	 C18	4.030	1.140	18.020	C.2	1	UNK0	0.000	
48	 C19	4.840	0.510	17.070	C.2	1	UNK0	0.000	
49	 C20	6.090	1.050	16.750	C.2	1	UNK0	0.000	
50	 C21	6.520	2.230	17.360	C.2	1	UNK0	0.000	
51	 C22	5.710	2.870	18.300	C.2	1	UNK0	0.000	
52	  O4	6.990	0.490	15.850	O.3	1	UNK0	0.000	
53	 C23	6.400	-0.560	15.080	C.3	1	UNK0	0.000	
@<TRIPOS>BOND
1 24 25 2
2 24 29 1
3 24 33 1
4 5 25 1
5 25 26 1
6 26 27 2
7 26 30 1
8 10 27 1
9 27 28 1
10 8 28 1
11 28 29 2
12 29 43 1
13 7 30 1
14 31 32 2
15 31 33 1
16 31 37 1
17 22 33 1
18 34 35 2
19 34 39 1
20 34 41 1
21 3 35 1
22 35 36 1
23 12 36 1
24 36 37 2
25 37 38 1
26 11 38 1
27 38 39 2
28 14 39 1
29 9 40 1
30 16 40 1
31 17 40 1
32 40 41 1
33 41 42 1
34 15 42 1
35 18 42 1
36 21 42 1
37 20 43 1
38 43 44 1
39 44 45 2
40 44 46 1
41 46 47 2
42 46 51 1
43 19 47 1
44 47 48 1
45 4 48 1
46 48 49 2
47 49 50 1
48 49 52 1
49 1 50 1
50 50 51 2
51 2 51 1
52 52 53 1
53 6 53 1
54 13 53 1
55 23 53 1
@<TRIPOS>SUBSTRUCTURE
1	UNK0	1	GROUP	1 ****	UNK
