# created with PyMOL 2.5.0
@<TRIPOS>MOLECULE
ZINC00587692
53 55 1                 
SMALL
USER_CHARGES
@<TRIPOS>ATOM
1	 H19	8.410	3.690	18.260	 H	1	UNK0	0.000	
2	 H20	6.420	3.700	19.710	 H	1	UNK0	0.000	
3	 H06	7.880	7.780	21.520	 H	1	UNK0	0.000	
4	 H18	7.020	0.100	16.330	 H	1	UNK0	0.000	
5	 H01	2.380	4.150	24.790	 H	1	UNK0	0.000	
6	 H22	10.140	0.930	15.100	 H	1	UNK0	0.000	
7	 H04	-0.170	1.800	24.640	 H	1	UNK0	0.000	
8	 H03	2.260	0.780	21.180	 H	1	UNK0	0.000	
9	 H10	10.900	9.480	24.670	 H	1	UNK0	0.000	
10	 H02	0.550	0.810	22.890	 H	1	UNK0	0.000	
11	 H08	5.950	6.480	25.900	 H	1	UNK0	0.000	
12	 H07	5.760	6.500	21.570	 H	1	UNK0	0.000	
13	 H23	9.150	-0.090	16.140	 H	1	UNK0	0.000	
14	 H09	8.090	7.670	25.800	 H	1	UNK0	0.000	
15	 H13	9.860	8.430	21.560	 H	1	UNK0	0.000	
16	 H12	10.110	8.180	25.570	 H	1	UNK0	0.000	
17	 H11	9.270	9.730	25.310	 H	1	UNK0	0.000	
18	 H14	9.030	9.910	22.110	 H	1	UNK0	0.000	
19	 H17	5.040	0.080	17.770	 H	1	UNK0	0.000	
20	 H16	5.180	3.070	21.030	 H	1	UNK0	0.000	
21	 H15	10.730	9.640	22.500	 H	1	UNK0	0.000	
22	 H05	5.190	4.380	22.400	 H	1	UNK0	0.000	
23	 H21	8.390	0.890	14.820	 H	1	UNK0	0.000	
24	  C1	3.390	3.500	22.970	C.2	1	UNK0	0.000	
25	  C2	2.390	3.470	23.960	C.2	1	UNK0	0.000	
26	  C3	1.380	2.520	23.920	C.2	1	UNK0	0.000	
27	  C4	1.330	1.560	22.910	C.2	1	UNK0	0.000	
28	  C5	2.320	1.570	21.930	C.2	1	UNK0	0.000	
29	  C6	3.360	2.520	21.920	C.2	1	UNK0	0.000	
30	  O1	0.440	2.520	24.900	O.3	1	UNK0	0.000	
31	  C7	4.470	5.590	23.860	C.2	1	UNK0	0.000	
32	  O2	3.630	5.960	24.670	O.2	1	UNK0	0.000	
33	  N1	4.410	4.490	23.020	N.pl3	1	UNK0	0.000	
34	  C8	8.120	7.840	23.660	C.2	1	UNK0	0.000	
35	  C9	7.440	7.500	22.480	C.2	1	UNK0	0.000	
36	 C10	6.260	6.760	22.510	C.2	1	UNK0	0.000	
37	 C11	5.720	6.380	23.750	C.2	1	UNK0	0.000	
38	 C12	6.350	6.760	24.930	C.2	1	UNK0	0.000	
39	 C13	7.560	7.460	24.880	C.2	1	UNK0	0.000	
40	 C14	9.940	8.990	24.860	C.3	1	UNK0	0.000	
41	  N2	9.380	8.480	23.610	N.pl3	1	UNK0	0.000	
42	 C15	9.760	9.150	22.380	C.3	1	UNK0	0.000	
43	  N3	4.370	2.500	20.900	N.pl3	1	UNK0	0.000	
44	 C16	4.380	1.740	19.750	C.2	1	UNK0	0.000	
45	  O3	3.490	0.980	19.390	O.2	1	UNK0	0.000	
46	 C17	5.580	1.870	18.860	C.2	1	UNK0	0.000	
47	 C18	5.760	0.880	17.880	C.2	1	UNK0	0.000	
48	 C19	6.890	0.890	17.060	C.2	1	UNK0	0.000	
49	 C20	7.850	1.900	17.210	C.2	1	UNK0	0.000	
50	 C21	7.660	2.920	18.150	C.2	1	UNK0	0.000	
51	 C22	6.530	2.910	18.970	C.2	1	UNK0	0.000	
52	  O4	9.040	1.960	16.480	O.3	1	UNK0	0.000	
53	 C23	9.170	0.860	15.590	C.3	1	UNK0	0.000	
@<TRIPOS>BOND
1 24 25 2
2 24 29 1
3 24 33 1
4 5 25 1
5 25 26 1
6 26 27 2
7 26 30 1
8 10 27 1
9 27 28 1
10 8 28 1
11 28 29 2
12 29 43 1
13 7 30 1
14 31 32 2
15 31 33 1
16 31 37 1
17 22 33 1
18 34 35 2
19 34 39 1
20 34 41 1
21 3 35 1
22 35 36 1
23 12 36 1
24 36 37 2
25 37 38 1
26 11 38 1
27 38 39 2
28 14 39 1
29 9 40 1
30 16 40 1
31 17 40 1
32 40 41 1
33 41 42 1
34 15 42 1
35 18 42 1
36 21 42 1
37 20 43 1
38 43 44 1
39 44 45 2
40 44 46 1
41 46 47 2
42 46 51 1
43 19 47 1
44 47 48 1
45 4 48 1
46 48 49 2
47 49 50 1
48 49 52 1
49 1 50 1
50 50 51 2
51 2 51 1
52 52 53 1
53 6 53 1
54 13 53 1
55 23 53 1
@<TRIPOS>SUBSTRUCTURE
1	UNK0	1	GROUP	1 ****	UNK
