# created with PyMOL 2.5.0
@<TRIPOS>MOLECULE
ZINC00587692
53 55 1                 
SMALL
USER_CHARGES
@<TRIPOS>ATOM
1	 H19	9.730	0.830	19.730	 H	1	UNK0	0.000	
2	 H20	8.350	1.780	21.530	 H	1	UNK0	0.000	
3	 H06	7.190	9.340	20.740	 H	1	UNK0	0.000	
4	 H18	7.090	2.500	16.780	 H	1	UNK0	0.000	
5	 H01	3.040	4.150	25.360	 H	1	UNK0	0.000	
6	 H22	9.030	-0.860	17.970	 H	1	UNK0	0.000	
7	 H04	0.730	1.500	25.220	 H	1	UNK0	0.000	
8	 H03	2.720	1.230	21.350	 H	1	UNK0	0.000	
9	 H10	9.820	10.850	24.350	 H	1	UNK0	0.000	
10	 H02	1.200	0.890	23.250	 H	1	UNK0	0.000	
11	 H08	5.560	7.010	24.790	 H	1	UNK0	0.000	
12	 H07	5.640	7.480	20.490	 H	1	UNK0	0.000	
13	 H23	10.060	-0.740	16.540	 H	1	UNK0	0.000	
14	 H09	7.100	8.850	25.020	 H	1	UNK0	0.000	
15	 H13	10.170	10.680	22.110	 H	1	UNK0	0.000	
16	 H12	9.350	9.160	24.570	 H	1	UNK0	0.000	
17	 H11	8.280	10.480	25.110	 H	1	UNK0	0.000	
18	 H14	9.630	9.030	21.790	 H	1	UNK0	0.000	
19	 H17	5.650	3.450	18.590	 H	1	UNK0	0.000	
20	 H16	4.450	2.280	20.380	 H	1	UNK0	0.000	
21	 H15	8.870	10.430	20.970	 H	1	UNK0	0.000	
22	 H05	4.880	5.280	24.360	 H	1	UNK0	0.000	
23	 H21	10.640	-0.070	18.070	 H	1	UNK0	0.000	
24	  C1	3.800	3.790	23.370	C.2	1	UNK0	0.000	
25	  C2	3.000	3.520	24.490	C.2	1	UNK0	0.000	
26	  C3	2.070	2.490	24.420	C.2	1	UNK0	0.000	
27	  C4	1.930	1.690	23.290	C.2	1	UNK0	0.000	
28	  C5	2.780	1.910	22.200	C.2	1	UNK0	0.000	
29	  C6	3.750	2.910	22.240	C.2	1	UNK0	0.000	
30	  O1	1.210	2.290	25.490	O.3	1	UNK0	0.000	
31	  C7	4.660	5.880	22.390	C.2	1	UNK0	0.000	
32	  O2	4.090	5.750	21.320	O.2	1	UNK0	0.000	
33	  N1	4.500	5.010	23.460	N.pl3	1	UNK0	0.000	
34	  C8	7.310	9.220	22.900	C.2	1	UNK0	0.000	
35	  C9	6.840	8.850	21.630	C.2	1	UNK0	0.000	
36	 C10	5.940	7.780	21.490	C.2	1	UNK0	0.000	
37	 C11	5.500	7.080	22.620	C.2	1	UNK0	0.000	
38	 C12	5.900	7.510	23.900	C.2	1	UNK0	0.000	
39	 C13	6.790	8.580	24.020	C.2	1	UNK0	0.000	
40	 C14	8.970	10.150	24.330	C.3	1	UNK0	0.000	
41	  N2	8.350	10.220	23.010	N.pl3	1	UNK0	0.000	
42	 C15	9.280	10.060	21.910	C.3	1	UNK0	0.000	
43	  N3	4.700	2.830	21.180	N.pl3	1	UNK0	0.000	
44	 C16	6.040	3.110	21.320	C.2	1	UNK0	0.000	
45	  O3	6.590	3.380	22.380	O.2	1	UNK0	0.000	
46	 C17	6.890	2.640	20.190	C.2	1	UNK0	0.000	
47	 C18	6.530	2.860	18.840	C.2	1	UNK0	0.000	
48	 C19	7.340	2.340	17.820	C.2	1	UNK0	0.000	
49	 C20	8.460	1.570	18.140	C.2	1	UNK0	0.000	
50	 C21	8.840	1.390	19.480	C.2	1	UNK0	0.000	
51	 C22	8.060	1.930	20.500	C.2	1	UNK0	0.000	
52	  O4	9.170	1.030	17.080	O.3	1	UNK0	0.000	
53	 C23	9.750	-0.220	17.450	C.3	1	UNK0	0.000	
@<TRIPOS>BOND
1 24 25 2
2 24 29 1
3 24 33 1
4 5 25 1
5 25 26 1
6 26 27 2
7 26 30 1
8 10 27 1
9 27 28 1
10 8 28 1
11 28 29 2
12 29 43 1
13 7 30 1
14 31 32 2
15 31 33 1
16 31 37 1
17 22 33 1
18 34 35 2
19 34 39 1
20 34 41 1
21 3 35 1
22 35 36 1
23 12 36 1
24 36 37 2
25 37 38 1
26 11 38 1
27 38 39 2
28 14 39 1
29 9 40 1
30 16 40 1
31 17 40 1
32 40 41 1
33 41 42 1
34 15 42 1
35 18 42 1
36 21 42 1
37 20 43 1
38 43 44 1
39 44 45 2
40 44 46 1
41 46 47 2
42 46 51 1
43 19 47 1
44 47 48 1
45 4 48 1
46 48 49 2
47 49 50 1
48 49 52 1
49 1 50 1
50 50 51 2
51 2 51 1
52 52 53 1
53 6 53 1
54 13 53 1
55 23 53 1
@<TRIPOS>SUBSTRUCTURE
1	UNK0	1	GROUP	1 ****	UNK
