# created with PyMOL 2.5.0
@<TRIPOS>MOLECULE
ZINC00587692
53 55 1                 
SMALL
USER_CHARGES
@<TRIPOS>ATOM
1	 H19	9.420	3.200	18.680	 H	1	UNK0	0.000	
2	 H20	7.790	4.280	20.210	 H	1	UNK0	0.000	
3	 H06	5.590	8.750	20.370	 H	1	UNK0	0.000	
4	 H18	6.270	0.750	17.060	 H	1	UNK0	0.000	
5	 H01	1.660	4.410	24.620	 H	1	UNK0	0.000	
6	 H22	7.890	-0.560	17.720	 H	1	UNK0	0.000	
7	 H04	0.430	3.010	25.620	 H	1	UNK0	0.000	
8	 H03	3.330	0.500	22.070	 H	1	UNK0	0.000	
9	 H10	8.890	11.090	22.400	 H	1	UNK0	0.000	
10	 H02	1.640	0.220	23.840	 H	1	UNK0	0.000	
11	 H08	4.660	8.090	25.200	 H	1	UNK0	0.000	
12	 H07	4.100	6.950	21.060	 H	1	UNK0	0.000	
13	 H23	9.390	-0.830	16.890	 H	1	UNK0	0.000	
14	 H09	6.190	9.860	24.470	 H	1	UNK0	0.000	
15	 H13	7.900	11.350	20.350	 H	1	UNK0	0.000	
16	 H12	8.680	9.340	22.490	 H	1	UNK0	0.000	
17	 H11	8.070	10.400	23.800	 H	1	UNK0	0.000	
18	 H14	7.630	9.620	20.160	 H	1	UNK0	0.000	
19	 H17	4.660	1.760	18.620	 H	1	UNK0	0.000	
20	 H16	4.650	1.660	20.910	 H	1	UNK0	0.000	
21	 H15	6.270	10.770	20.010	 H	1	UNK0	0.000	
22	 H05	4.270	5.120	22.090	 H	1	UNK0	0.000	
23	 H21	7.950	-0.290	15.980	 H	1	UNK0	0.000	
24	  C1	3.070	3.770	23.090	C.2	1	UNK0	0.000	
25	  C2	2.080	3.580	24.070	C.2	1	UNK0	0.000	
26	  C3	1.590	2.310	24.320	C.2	1	UNK0	0.000	
27	  C4	2.050	1.200	23.620	C.2	1	UNK0	0.000	
28	  C5	3.000	1.380	22.620	C.2	1	UNK0	0.000	
29	  C6	3.520	2.650	22.320	C.2	1	UNK0	0.000	
30	  O1	0.640	2.120	25.280	O.3	1	UNK0	0.000	
31	  C7	3.520	6.180	23.680	C.2	1	UNK0	0.000	
32	  O2	3.080	6.170	24.820	O.2	1	UNK0	0.000	
33	  N1	3.610	5.070	22.870	N.pl3	1	UNK0	0.000	
34	  C8	6.030	9.430	22.370	C.2	1	UNK0	0.000	
35	  C9	5.390	8.620	21.430	C.2	1	UNK0	0.000	
36	 C10	4.540	7.580	21.820	C.2	1	UNK0	0.000	
37	 C11	4.300	7.360	23.190	C.2	1	UNK0	0.000	
38	 C12	4.850	8.230	24.140	C.2	1	UNK0	0.000	
39	 C13	5.730	9.240	23.720	C.2	1	UNK0	0.000	
40	 C14	8.200	10.300	22.710	C.3	1	UNK0	0.000	
41	  N2	6.950	10.450	21.990	N.pl3	1	UNK0	0.000	
42	 C15	7.190	10.540	20.550	C.3	1	UNK0	0.000	
43	  N3	4.470	2.590	21.250	N.pl3	1	UNK0	0.000	
44	 C16	5.200	3.580	20.620	C.2	1	UNK0	0.000	
45	  O3	5.240	4.770	20.880	O.2	1	UNK0	0.000	
46	 C17	6.130	3.050	19.570	C.2	1	UNK0	0.000	
47	 C18	5.690	2.080	18.640	C.2	1	UNK0	0.000	
48	 C19	6.610	1.510	17.750	C.2	1	UNK0	0.000	
49	 C20	7.960	1.880	17.800	C.2	1	UNK0	0.000	
50	 C21	8.380	2.910	18.660	C.2	1	UNK0	0.000	
51	 C22	7.460	3.510	19.530	C.2	1	UNK0	0.000	
52	  O4	8.950	1.200	17.070	O.3	1	UNK0	0.000	
53	 C23	8.520	-0.170	16.910	C.3	1	UNK0	0.000	
@<TRIPOS>BOND
1 24 25 2
2 24 29 1
3 24 33 1
4 5 25 1
5 25 26 1
6 26 27 2
7 26 30 1
8 10 27 1
9 27 28 1
10 8 28 1
11 28 29 2
12 29 43 1
13 7 30 1
14 31 32 2
15 31 33 1
16 31 37 1
17 22 33 1
18 34 35 2
19 34 39 1
20 34 41 1
21 3 35 1
22 35 36 1
23 12 36 1
24 36 37 2
25 37 38 1
26 11 38 1
27 38 39 2
28 14 39 1
29 9 40 1
30 16 40 1
31 17 40 1
32 40 41 1
33 41 42 1
34 15 42 1
35 18 42 1
36 21 42 1
37 20 43 1
38 43 44 1
39 44 45 2
40 44 46 1
41 46 47 2
42 46 51 1
43 19 47 1
44 47 48 1
45 4 48 1
46 48 49 2
47 49 50 1
48 49 52 1
49 1 50 1
50 50 51 2
51 2 51 1
52 52 53 1
53 6 53 1
54 13 53 1
55 23 53 1
@<TRIPOS>SUBSTRUCTURE
1	UNK0	1	GROUP	1 ****	UNK
