# created with PyMOL 2.5.0
@<TRIPOS>MOLECULE
ZINC00587692
53 55 1                 
SMALL
USER_CHARGES
@<TRIPOS>ATOM
1	 H19	10.100	0.340	19.270	 H	1	UNK0	0.000	
2	 H20	8.240	1.290	20.600	 H	1	UNK0	0.000	
3	 H06	8.410	6.870	20.230	 H	1	UNK0	0.000	
4	 H18	7.390	-0.470	16.030	 H	1	UNK0	0.000	
5	 H01	2.640	3.660	23.580	 H	1	UNK0	0.000	
6	 H22	10.480	-2.400	15.910	 H	1	UNK0	0.000	
7	 H04	0.870	2.670	24.280	 H	1	UNK0	0.000	
8	 H03	3.800	-0.880	21.960	 H	1	UNK0	0.000	
9	 H10	10.060	9.640	23.390	 H	1	UNK0	0.000	
10	 H02	1.860	-0.570	23.440	 H	1	UNK0	0.000	
11	 H08	5.000	6.570	23.820	 H	1	UNK0	0.000	
12	 H07	6.580	5.190	20.030	 H	1	UNK0	0.000	
13	 H23	9.080	-2.620	16.970	 H	1	UNK0	0.000	
14	 H09	6.840	8.220	23.960	 H	1	UNK0	0.000	
15	 H13	9.620	10.100	20.900	 H	1	UNK0	0.000	
16	 H12	9.200	8.310	24.150	 H	1	UNK0	0.000	
17	 H11	8.340	9.840	23.790	 H	1	UNK0	0.000	
18	 H14	8.370	9.160	20.080	 H	1	UNK0	0.000	
19	 H17	5.510	0.490	17.360	 H	1	UNK0	0.000	
20	 H16	5.980	0.030	21.240	 H	1	UNK0	0.000	
21	 H15	7.910	10.370	21.300	 H	1	UNK0	0.000	
22	 H05	5.940	3.400	22.520	 H	1	UNK0	0.000	
23	 H21	8.920	-1.730	15.420	 H	1	UNK0	0.000	
24	  C1	4.040	2.500	22.440	C.2	1	UNK0	0.000	
25	  C2	2.880	2.670	23.210	C.2	1	UNK0	0.000	
26	  C3	2.140	1.560	23.580	C.2	1	UNK0	0.000	
27	  C4	2.480	0.280	23.170	C.2	1	UNK0	0.000	
28	  C5	3.600	0.110	22.360	C.2	1	UNK0	0.000	
29	  C6	4.410	1.200	22.000	C.2	1	UNK0	0.000	
30	  O1	1.060	1.720	24.410	O.3	1	UNK0	0.000	
31	  C7	4.600	4.790	21.840	C.2	1	UNK0	0.000	
32	  O2	3.490	5.100	21.420	O.2	1	UNK0	0.000	
33	  N1	4.950	3.580	22.390	N.pl3	1	UNK0	0.000	
34	  C8	7.710	7.680	22.070	C.2	1	UNK0	0.000	
35	  C9	7.630	6.820	20.980	C.2	1	UNK0	0.000	
36	 C10	6.620	5.860	20.880	C.2	1	UNK0	0.000	
37	 C11	5.670	5.790	21.910	C.2	1	UNK0	0.000	
38	 C12	5.730	6.640	23.020	C.2	1	UNK0	0.000	
39	 C13	6.770	7.580	23.100	C.2	1	UNK0	0.000	
40	 C14	9.100	9.130	23.430	C.3	1	UNK0	0.000	
41	  N2	8.760	8.620	22.110	N.pl3	1	UNK0	0.000	
42	 C15	8.660	9.600	21.040	C.3	1	UNK0	0.000	
43	  N3	5.530	0.930	21.180	N.pl3	1	UNK0	0.000	
44	 C16	5.610	1.450	19.900	C.2	1	UNK0	0.000	
45	  O3	4.690	2.030	19.350	O.2	1	UNK0	0.000	
46	 C17	6.740	0.900	19.090	C.2	1	UNK0	0.000	
47	 C18	6.510	0.430	17.790	C.2	1	UNK0	0.000	
48	 C19	7.560	-0.120	17.050	C.2	1	UNK0	0.000	
49	 C20	8.850	-0.180	17.610	C.2	1	UNK0	0.000	
50	 C21	9.090	0.350	18.870	C.2	1	UNK0	0.000	
51	 C22	8.040	0.880	19.620	C.2	1	UNK0	0.000	
52	  O4	9.940	-0.720	16.940	O.3	1	UNK0	0.000	
53	 C23	9.570	-1.930	16.280	C.3	1	UNK0	0.000	
@<TRIPOS>BOND
1 24 25 2
2 24 29 1
3 24 33 1
4 5 25 1
5 25 26 1
6 26 27 2
7 26 30 1
8 10 27 1
9 27 28 1
10 8 28 1
11 28 29 2
12 29 43 1
13 7 30 1
14 31 32 2
15 31 33 1
16 31 37 1
17 22 33 1
18 34 35 2
19 34 39 1
20 34 41 1
21 3 35 1
22 35 36 1
23 12 36 1
24 36 37 2
25 37 38 1
26 11 38 1
27 38 39 2
28 14 39 1
29 9 40 1
30 16 40 1
31 17 40 1
32 40 41 1
33 41 42 1
34 15 42 1
35 18 42 1
36 21 42 1
37 20 43 1
38 43 44 1
39 44 45 2
40 44 46 1
41 46 47 2
42 46 51 1
43 19 47 1
44 47 48 1
45 4 48 1
46 48 49 2
47 49 50 1
48 49 52 1
49 1 50 1
50 50 51 2
51 2 51 1
52 52 53 1
53 6 53 1
54 13 53 1
55 23 53 1
@<TRIPOS>SUBSTRUCTURE
1	UNK0	1	GROUP	1 ****	UNK
