# created with PyMOL 2.5.0
@<TRIPOS>MOLECULE
ZINC31490747
73 78 1                 
SMALL
USER_CHARGES
@<TRIPOS>ATOM
1	 H03	4.660	0.300	11.630	 H	1	UNK0	0.000	
2	 H05	11.400	-1.340	17.400	 H	1	UNK0	0.000	
3	 H04	4.820	0.170	17.990	 H	1	UNK0	0.000	
4	 H10	6.560	5.010	21.520	 H	1	UNK0	0.000	
5	 H09	4.500	4.290	20.360	 H	1	UNK0	0.000	
6	 H08	4.550	2.420	18.780	 H	1	UNK0	0.000	
7	 H06	11.240	0.540	18.950	 H	1	UNK0	0.000	
8	 H11	8.690	3.890	21.120	 H	1	UNK0	0.000	
9	 H18	4.830	2.720	12.130	 H	1	UNK0	0.000	
10	 H13	11.390	-2.660	16.610	 H	1	UNK0	0.000	
11	 H16	7.300	2.940	12.850	 H	1	UNK0	0.000	
12	 H15	10.860	-3.650	15.230	 H	1	UNK0	0.000	
13	 H26	6.950	4.590	11.460	 H	1	UNK0	0.000	
14	 H14	10.300	-4.040	16.870	 H	1	UNK0	0.000	
15	 H07	7.230	-1.100	16.500	 H	1	UNK0	0.000	
16	 H12	9.840	2.160	19.960	 H	1	UNK0	0.000	
17	 H22	3.020	4.690	11.290	 H	1	UNK0	0.000	
18	 H19	4.980	5.300	13.590	 H	1	UNK0	0.000	
19	 H25	6.160	3.420	10.410	 H	1	UNK0	0.000	
20	 H24	4.700	5.060	9.680	 H	1	UNK0	0.000	
21	 H23	5.540	6.240	10.650	 H	1	UNK0	0.000	
22	 H34	6.060	-5.100	11.800	 H	1	UNK0	0.000	
23	 H29	5.680	-1.240	11.620	 H	1	UNK0	0.000	
24	 H28	4.080	-2.270	13.820	 H	1	UNK0	0.000	
25	 H27	3.560	-1.140	12.560	 H	1	UNK0	0.000	
26	 H30	6.410	-2.880	13.980	 H	1	UNK0	0.000	
27	 H33	7.980	-2.810	11.330	 H	1	UNK0	0.000	
28	 H32	8.090	-4.040	12.550	 H	1	UNK0	0.000	
29	 H31	7.280	-1.550	13.280	 H	1	UNK0	0.000	
30	 H17	6.500	3.930	14.090	 H	1	UNK0	0.000	
31	 H21	3.450	6.270	11.870	 H	1	UNK0	0.000	
32	 H37	4.230	-3.710	12.120	 H	1	UNK0	0.000	
33	 H36	4.570	-2.940	10.570	 H	1	UNK0	0.000	
34	 H20	3.680	4.160	13.560	 H	1	UNK0	0.000	
35	 H35	6.440	-4.270	10.310	 H	1	UNK0	0.000	
36	 H01	4.700	-1.330	15.830	 H	1	UNK0	0.000	
37	 H02	6.350	2.630	16.010	 H	1	UNK0	0.000	
38	  C1	5.520	0.640	16.070	C.2	1	UNK0	0.000	
39	  C2	5.030	-0.420	15.330	C.2	1	UNK0	0.000	
40	  C3	4.950	-0.330	13.960	C.2	1	UNK0	0.000	
41	  C4	5.390	0.820	13.320	C.2	1	UNK0	0.000	
42	  C5	5.890	1.880	14.060	C.2	1	UNK0	0.000	
43	  C6	5.950	1.790	15.430	C.2	1	UNK0	0.000	
44	  O1	5.320	0.910	11.960	O.3	1	UNK0	0.000	
45	  N1	5.590	0.550	17.470	N.pl3	1	UNK0	0.000	
46	  C7	9.310	-1.320	16.870	C.2	1	UNK0	0.000	
47	  C8	10.440	-0.860	17.560	C.2	1	UNK0	0.000	
48	  C9	10.350	0.190	18.420	C.2	1	UNK0	0.000	
49	 C10	9.110	0.820	18.630	C.2	1	UNK0	0.000	
50	 C11	7.970	0.350	17.930	C.2	1	UNK0	0.000	
51	 C12	8.090	-0.730	17.040	C.2	1	UNK0	0.000	
52	 C13	6.720	0.980	18.130	C.2	1	UNK0	0.000	
53	 C14	6.670	2.060	19.040	C.2	1	UNK0	0.000	
54	 C15	5.460	2.730	19.290	C.2	1	UNK0	0.000	
55	 C16	5.440	3.770	20.170	C.2	1	UNK0	0.000	
56	 C17	6.600	4.180	20.820	C.2	1	UNK0	0.000	
57	 C18	7.790	3.550	20.600	C.2	1	UNK0	0.000	
58	 C19	7.860	2.470	19.700	C.2	1	UNK0	0.000	
59	  N2	9.010	1.850	19.480	N.pl3	1	UNK0	0.000	
60	 C20	10.560	-3.230	16.190	C.3	1	UNK0	0.000	
61	  O2	9.440	-2.370	16.010	O.3	1	UNK0	0.000	
62	 C21	6.360	3.130	13.360	C.3	1	UNK0	0.000	
63	  N3	5.350	3.550	12.370	N.4	1	UNK0	0.000	
64	 C22	4.460	4.600	12.940	C.3	1	UNK0	0.000	
65	 C23	3.860	5.270	11.680	C.3	1	UNK0	0.000	
66	 C24	5.040	5.270	10.690	C.3	1	UNK0	0.000	
67	 C25	5.990	4.160	11.190	C.3	1	UNK0	0.000	
68	 C26	4.410	-1.480	13.150	C.3	1	UNK0	0.000	
69	  N4	5.460	-1.990	12.260	N.4	1	UNK0	0.000	
70	 C27	6.660	-2.410	13.030	C.3	1	UNK0	0.000	
71	 C28	7.390	-3.370	12.060	C.3	1	UNK0	0.000	
72	 C29	6.220	-4.120	11.370	C.3	1	UNK0	0.000	
73	 C30	5.000	-3.200	11.540	C.3	1	UNK0	0.000	
@<TRIPOS>BOND
1 38 39 1
2 38 43 2
3 38 45 1
4 36 39 1
5 39 40 2
6 40 41 1
7 40 68 1
8 41 42 2
9 41 44 1
10 42 43 1
11 42 62 1
12 37 43 1
13 1 44 1
14 3 45 1
15 45 52 1
16 46 47 2
17 46 51 1
18 46 61 1
19 2 47 1
20 47 48 1
21 7 48 1
22 48 49 2
23 49 50 1
24 49 59 1
25 50 51 2
26 50 52 1
27 15 51 1
28 52 53 2
29 53 54 1
30 53 58 1
31 6 54 1
32 54 55 2
33 5 55 1
34 55 56 1
35 4 56 1
36 56 57 2
37 8 57 1
38 57 58 1
39 58 59 2
40 16 59 1
41 10 60 1
42 12 60 1
43 14 60 1
44 60 61 1
45 11 62 1
46 30 62 1
47 62 63 1
48 9 63 1
49 63 64 1
50 63 67 1
51 18 64 1
52 34 64 1
53 64 65 1
54 17 65 1
55 31 65 1
56 65 66 1
57 20 66 1
58 21 66 1
59 66 67 1
60 13 67 1
61 19 67 1
62 24 68 1
63 25 68 1
64 68 69 1
65 23 69 1
66 69 70 1
67 69 73 1
68 26 70 1
69 29 70 1
70 70 71 1
71 27 71 1
72 28 71 1
73 71 72 1
74 22 72 1
75 35 72 1
76 72 73 1
77 32 73 1
78 33 73 1
@<TRIPOS>SUBSTRUCTURE
1	UNK0	1	GROUP	1 ****	UNK
