# created with PyMOL 2.5.0
@<TRIPOS>MOLECULE
ZINC31490747
73 78 1                 
SMALL
USER_CHARGES
@<TRIPOS>ATOM
1	 H03	2.490	0.780	13.940	 H	1	UNK0	0.000	
2	 H05	8.440	-0.310	15.010	 H	1	UNK0	0.000	
3	 H04	4.320	-1.860	19.120	 H	1	UNK0	0.000	
4	 H10	5.490	4.400	22.100	 H	1	UNK0	0.000	
5	 H09	3.700	2.750	22.550	 H	1	UNK0	0.000	
6	 H08	3.550	0.680	21.210	 H	1	UNK0	0.000	
7	 H06	8.450	1.690	16.430	 H	1	UNK0	0.000	
8	 H11	7.120	4.030	20.290	 H	1	UNK0	0.000	
9	 H18	2.920	2.850	15.570	 H	1	UNK0	0.000	
10	 H13	8.270	-3.250	17.760	 H	1	UNK0	0.000	
11	 H16	0.740	2.570	17.470	 H	1	UNK0	0.000	
12	 H15	8.860	-4.080	15.920	 H	1	UNK0	0.000	
13	 H26	2.460	3.640	18.270	 H	1	UNK0	0.000	
14	 H14	9.190	-4.190	16.810	 H	1	UNK0	0.000	
15	 H07	5.980	-2.380	17.830	 H	1	UNK0	0.000	
16	 H12	7.890	2.620	18.530	 H	1	UNK0	0.000	
17	 H22	3.070	5.890	15.030	 H	1	UNK0	0.000	
18	 H19	0.470	4.420	15.570	 H	1	UNK0	0.000	
19	 H25	3.940	3.690	17.250	 H	1	UNK0	0.000	
20	 H24	3.650	6.080	17.320	 H	1	UNK0	0.000	
21	 H23	1.970	5.890	17.820	 H	1	UNK0	0.000	
22	 H34	4.790	-4.300	12.170	 H	1	UNK0	0.000	
23	 H29	3.740	-0.750	13.430	 H	1	UNK0	0.000	
24	 H28	2.780	-3.130	14.860	 H	1	UNK0	0.000	
25	 H27	1.710	-2.010	13.990	 H	1	UNK0	0.000	
26	 H30	5.040	-2.850	14.910	 H	1	UNK0	0.000	
27	 H33	6.490	-1.820	12.430	 H	1	UNK0	0.000	
28	 H32	6.720	-3.380	13.230	 H	1	UNK0	0.000	
29	 H31	5.560	-1.170	14.530	 H	1	UNK0	0.000	
30	 H17	0.450	2.200	15.770	 H	1	UNK0	0.000	
31	 H21	1.540	6.590	15.590	 H	1	UNK0	0.000	
32	 H37	2.740	-3.170	12.300	 H	1	UNK0	0.000	
33	 H36	3.400	-1.700	11.510	 H	1	UNK0	0.000	
34	 H20	1.640	4.120	14.250	 H	1	UNK0	0.000	
35	 H35	5.240	-3.140	10.910	 H	1	UNK0	0.000	
36	 H01	3.730	-2.490	17.070	 H	1	UNK0	0.000	
37	 H02	2.520	1.240	18.780	 H	1	UNK0	0.000	
38	  C1	3.200	-0.660	18.060	C.2	1	UNK0	0.000	
39	  C2	3.210	-1.540	16.970	C.2	1	UNK0	0.000	
40	  C3	2.640	-1.180	15.740	C.2	1	UNK0	0.000	
41	  C4	2.040	0.070	15.640	C.2	1	UNK0	0.000	
42	  C5	1.920	0.930	16.720	C.2	1	UNK0	0.000	
43	  C6	2.520	0.560	17.930	C.2	1	UNK0	0.000	
44	  O1	1.640	0.540	14.390	O.3	1	UNK0	0.000	
45	  N1	4.060	-0.870	19.140	N.pl3	1	UNK0	0.000	
46	  C7	7.340	-1.490	16.430	C.2	1	UNK0	0.000	
47	  C8	7.850	-0.300	15.930	C.2	1	UNK0	0.000	
48	  C9	7.850	0.840	16.730	C.2	1	UNK0	0.000	
49	 C10	7.090	0.860	17.900	C.2	1	UNK0	0.000	
50	 C11	6.240	-0.240	18.210	C.2	1	UNK0	0.000	
51	 C12	6.460	-1.460	17.520	C.2	1	UNK0	0.000	
52	 C13	5.230	-0.060	19.190	C.2	1	UNK0	0.000	
53	 C14	5.250	1.150	19.940	C.2	1	UNK0	0.000	
54	 C15	4.320	1.410	20.970	C.2	1	UNK0	0.000	
55	 C16	4.410	2.580	21.730	C.2	1	UNK0	0.000	
56	 C17	5.410	3.510	21.490	C.2	1	UNK0	0.000	
57	 C18	6.340	3.290	20.460	C.2	1	UNK0	0.000	
58	 C19	6.250	2.120	19.690	C.2	1	UNK0	0.000	
59	  N2	7.110	1.950	18.670	N.pl3	1	UNK0	0.000	
60	 C20	8.200	-3.670	16.710	C.3	1	UNK0	0.000	
61	  O2	7.750	-2.650	15.780	O.3	1	UNK0	0.000	
62	 C21	1.220	2.260	16.540	C.3	1	UNK0	0.000	
63	  N3	2.170	3.300	16.160	N.4	1	UNK0	0.000	
64	 C22	1.520	4.390	15.300	C.3	1	UNK0	0.000	
65	 C23	2.220	5.730	15.680	C.3	1	UNK0	0.000	
66	 C24	2.720	5.530	17.130	C.3	1	UNK0	0.000	
67	 C25	2.900	3.990	17.320	C.3	1	UNK0	0.000	
68	 C26	2.650	-2.090	14.540	C.3	1	UNK0	0.000	
69	  N4	3.740	-1.790	13.610	N.4	1	UNK0	0.000	
70	 C27	5.150	-2.090	14.120	C.3	1	UNK0	0.000	
71	 C28	5.970	-2.660	12.930	C.3	1	UNK0	0.000	
72	 C29	4.930	-3.230	11.950	C.3	1	UNK0	0.000	
73	 C30	3.590	-2.490	12.250	C.3	1	UNK0	0.000	
@<TRIPOS>BOND
1 38 39 1
2 38 43 2
3 38 45 1
4 36 39 1
5 39 40 2
6 40 41 1
7 40 68 1
8 41 42 2
9 41 44 1
10 42 43 1
11 42 62 1
12 37 43 1
13 1 44 1
14 3 45 1
15 45 52 1
16 46 47 2
17 46 51 1
18 46 61 1
19 2 47 1
20 47 48 1
21 7 48 1
22 48 49 2
23 49 50 1
24 49 59 1
25 50 51 2
26 50 52 1
27 15 51 1
28 52 53 2
29 53 54 1
30 53 58 1
31 6 54 1
32 54 55 2
33 5 55 1
34 55 56 1
35 4 56 1
36 56 57 2
37 8 57 1
38 57 58 1
39 58 59 2
40 16 59 1
41 10 60 1
42 12 60 1
43 14 60 1
44 60 61 1
45 11 62 1
46 30 62 1
47 62 63 1
48 9 63 1
49 63 64 1
50 63 67 1
51 18 64 1
52 34 64 1
53 64 65 1
54 17 65 1
55 31 65 1
56 65 66 1
57 20 66 1
58 21 66 1
59 66 67 1
60 13 67 1
61 19 67 1
62 24 68 1
63 25 68 1
64 68 69 1
65 23 69 1
66 69 70 1
67 69 73 1
68 26 70 1
69 29 70 1
70 70 71 1
71 27 71 1
72 28 71 1
73 71 72 1
74 22 72 1
75 35 72 1
76 72 73 1
77 32 73 1
78 33 73 1
@<TRIPOS>SUBSTRUCTURE
1	UNK0	1	GROUP	1 ****	UNK
