# created with PyMOL 2.5.0
@<TRIPOS>MOLECULE
ZINC31490747
73 78 1                 
SMALL
USER_CHARGES
@<TRIPOS>ATOM
1	 H03	5.600	1.900	12.910	 H	1	UNK0	0.000	
2	 H05	12.410	-0.250	17.070	 H	1	UNK0	0.000	
3	 H04	7.520	3.000	18.960	 H	1	UNK0	0.000	
4	 H10	11.380	8.620	18.250	 H	1	UNK0	0.000	
5	 H09	8.990	8.390	18.770	 H	1	UNK0	0.000	
6	 H08	7.900	6.180	18.670	 H	1	UNK0	0.000	
7	 H06	13.240	2.030	17.040	 H	1	UNK0	0.000	
8	 H11	12.720	6.670	17.570	 H	1	UNK0	0.000	
9	 H18	7.540	5.870	14.070	 H	1	UNK0	0.000	
10	 H13	11.460	-1.940	18.220	 H	1	UNK0	0.000	
11	 H16	5.780	3.960	12.690	 H	1	UNK0	0.000	
12	 H15	11.280	-1.930	16.430	 H	1	UNK0	0.000	
13	 H26	4.730	5.520	14.220	 H	1	UNK0	0.000	
14	 H14	10.250	-2.950	17.430	 H	1	UNK0	0.000	
15	 H07	8.460	1.140	17.990	 H	1	UNK0	0.000	
16	 H12	12.790	4.320	17.160	 H	1	UNK0	0.000	
17	 H22	6.740	8.390	12.330	 H	1	UNK0	0.000	
18	 H19	6.780	5.520	11.320	 H	1	UNK0	0.000	
19	 H25	5.770	6.810	14.910	 H	1	UNK0	0.000	
20	 H24	4.600	8.230	13.340	 H	1	UNK0	0.000	
21	 H23	4.170	6.830	12.350	 H	1	UNK0	0.000	
22	 H34	4.610	-3.030	17.460	 H	1	UNK0	0.000	
23	 H29	5.450	-0.400	14.670	 H	1	UNK0	0.000	
24	 H28	4.210	0.310	17.190	 H	1	UNK0	0.000	
25	 H27	3.570	0.650	15.560	 H	1	UNK0	0.000	
26	 H30	6.380	-0.550	17.410	 H	1	UNK0	0.000	
27	 H33	7.070	-2.980	15.730	 H	1	UNK0	0.000	
28	 H32	6.990	-2.890	17.490	 H	1	UNK0	0.000	
29	 H31	7.340	-0.600	15.890	 H	1	UNK0	0.000	
30	 H17	7.560	3.790	12.900	 H	1	UNK0	0.000	
31	 H21	5.870	7.730	10.940	 H	1	UNK0	0.000	
32	 H37	3.330	-1.680	16.010	 H	1	UNK0	0.000	
33	 H36	4.230	-2.230	14.570	 H	1	UNK0	0.000	
34	 H20	8.130	6.480	12.050	 H	1	UNK0	0.000	
35	 H35	4.940	-4.010	16.030	 H	1	UNK0	0.000	
36	 H01	5.850	1.780	18.170	 H	1	UNK0	0.000	
37	 H02	7.820	4.710	15.790	 H	1	UNK0	0.000	
38	  C1	6.940	3.270	17.080	C.2	1	UNK0	0.000	
39	  C2	6.010	2.240	17.200	C.2	1	UNK0	0.000	
40	  C3	5.360	1.740	16.060	C.2	1	UNK0	0.000	
41	  C4	5.610	2.340	14.820	C.2	1	UNK0	0.000	
42	  C5	6.440	3.460	14.690	C.2	1	UNK0	0.000	
43	  C6	7.120	3.890	15.840	C.2	1	UNK0	0.000	
44	  O1	5.020	1.740	13.720	O.3	1	UNK0	0.000	
45	  N1	7.710	3.640	18.200	N.pl3	1	UNK0	0.000	
46	  C7	10.360	0.310	17.510	C.2	1	UNK0	0.000	
47	  C8	11.710	0.550	17.260	C.2	1	UNK0	0.000	
48	  C9	12.180	1.870	17.240	C.2	1	UNK0	0.000	
49	 C10	11.330	2.940	17.480	C.2	1	UNK0	0.000	
50	 C11	9.950	2.710	17.780	C.2	1	UNK0	0.000	
51	 C12	9.500	1.370	17.780	C.2	1	UNK0	0.000	
52	 C13	9.110	3.820	18.050	C.2	1	UNK0	0.000	
53	 C14	9.690	5.110	18.070	C.2	1	UNK0	0.000	
54	 C15	8.950	6.260	18.410	C.2	1	UNK0	0.000	
55	 C16	9.560	7.510	18.470	C.2	1	UNK0	0.000	
56	 C17	10.910	7.640	18.170	C.2	1	UNK0	0.000	
57	 C18	11.670	6.530	17.800	C.2	1	UNK0	0.000	
58	 C19	11.070	5.260	17.750	C.2	1	UNK0	0.000	
59	  N2	11.810	4.190	17.430	N.pl3	1	UNK0	0.000	
60	 C20	10.760	-1.990	17.390	C.3	1	UNK0	0.000	
61	  O2	9.770	-0.950	17.490	O.3	1	UNK0	0.000	
62	 C21	6.630	4.130	13.350	C.3	1	UNK0	0.000	
63	  N3	6.750	5.620	13.450	N.4	1	UNK0	0.000	
64	 C22	7.060	6.250	12.090	C.3	1	UNK0	0.000	
65	 C23	6.170	7.530	11.970	C.3	1	UNK0	0.000	
66	 C24	4.980	7.290	12.910	C.3	1	UNK0	0.000	
67	 C25	5.480	6.290	14.000	C.3	1	UNK0	0.000	
68	 C26	4.490	0.530	16.150	C.3	1	UNK0	0.000	
69	  N4	5.190	-0.660	15.630	N.4	1	UNK0	0.000	
70	 C27	6.470	-1.010	16.430	C.3	1	UNK0	0.000	
71	 C28	6.510	-2.560	16.560	C.3	1	UNK0	0.000	
72	 C29	5.040	-3.010	16.460	C.3	1	UNK0	0.000	
73	 C30	4.310	-1.930	15.620	C.3	1	UNK0	0.000	
@<TRIPOS>BOND
1 38 39 1
2 38 43 2
3 38 45 1
4 36 39 1
5 39 40 2
6 40 41 1
7 40 68 1
8 41 42 2
9 41 44 1
10 42 43 1
11 42 62 1
12 37 43 1
13 1 44 1
14 3 45 1
15 45 52 1
16 46 47 2
17 46 51 1
18 46 61 1
19 2 47 1
20 47 48 1
21 7 48 1
22 48 49 2
23 49 50 1
24 49 59 1
25 50 51 2
26 50 52 1
27 15 51 1
28 52 53 2
29 53 54 1
30 53 58 1
31 6 54 1
32 54 55 2
33 5 55 1
34 55 56 1
35 4 56 1
36 56 57 2
37 8 57 1
38 57 58 1
39 58 59 2
40 16 59 1
41 10 60 1
42 12 60 1
43 14 60 1
44 60 61 1
45 11 62 1
46 30 62 1
47 62 63 1
48 9 63 1
49 63 64 1
50 63 67 1
51 18 64 1
52 34 64 1
53 64 65 1
54 17 65 1
55 31 65 1
56 65 66 1
57 20 66 1
58 21 66 1
59 66 67 1
60 13 67 1
61 19 67 1
62 24 68 1
63 25 68 1
64 68 69 1
65 23 69 1
66 69 70 1
67 69 73 1
68 26 70 1
69 29 70 1
70 70 71 1
71 27 71 1
72 28 71 1
73 71 72 1
74 22 72 1
75 35 72 1
76 72 73 1
77 32 73 1
78 33 73 1
@<TRIPOS>SUBSTRUCTURE
1	UNK0	1	GROUP	1 ****	UNK
