# created with PyMOL 2.5.0
@<TRIPOS>MOLECULE
ZINC31490747
73 78 1                 
SMALL
USER_CHARGES
@<TRIPOS>ATOM
1	 H03	5.430	-0.430	14.010	 H	1	UNK0	0.000	
2	 H05	10.380	-0.590	18.360	 H	1	UNK0	0.000	
3	 H04	4.630	0.410	19.990	 H	1	UNK0	0.000	
4	 H10	5.950	7.250	19.130	 H	1	UNK0	0.000	
5	 H09	3.990	6.140	20.140	 H	1	UNK0	0.000	
6	 H08	3.880	3.690	20.280	 H	1	UNK0	0.000	
7	 H06	10.280	1.800	18.160	 H	1	UNK0	0.000	
8	 H11	7.880	5.930	18.390	 H	1	UNK0	0.000	
9	 H18	2.910	1.360	13.530	 H	1	UNK0	0.000	
10	 H13	9.390	-3.870	18.600	 H	1	UNK0	0.000	
11	 H16	4.690	2.710	14.100	 H	1	UNK0	0.000	
12	 H15	10.360	-2.540	19.250	 H	1	UNK0	0.000	
13	 H26	3.280	4.050	12.760	 H	1	UNK0	0.000	
14	 H14	9.700	-2.470	17.570	 H	1	UNK0	0.000	
15	 H07	6.330	-0.750	19.710	 H	1	UNK0	0.000	
16	 H12	8.990	3.830	18.430	 H	1	UNK0	0.000	
17	 H22	-0.210	2.160	13.100	 H	1	UNK0	0.000	
18	 H19	1.460	2.820	15.560	 H	1	UNK0	0.000	
19	 H25	2.620	2.700	11.800	 H	1	UNK0	0.000	
20	 H24	0.590	4.010	11.820	 H	1	UNK0	0.000	
21	 H23	1.120	4.860	13.280	 H	1	UNK0	0.000	
22	 H34	5.420	-5.940	16.290	 H	1	UNK0	0.000	
23	 H29	6.640	-2.230	16.360	 H	1	UNK0	0.000	
24	 H28	3.780	-2.800	16.100	 H	1	UNK0	0.000	
25	 H27	4.790	-2.250	14.760	 H	1	UNK0	0.000	
26	 H30	4.560	-3.560	17.980	 H	1	UNK0	0.000	
27	 H33	7.350	-4.720	18.240	 H	1	UNK0	0.000	
28	 H32	5.820	-5.520	18.600	 H	1	UNK0	0.000	
29	 H31	6.020	-2.720	18.560	 H	1	UNK0	0.000	
30	 H17	3.600	3.590	15.210	 H	1	UNK0	0.000	
31	 H21	-0.510	3.440	14.290	 H	1	UNK0	0.000	
32	 H37	5.610	-4.210	14.700	 H	1	UNK0	0.000	
33	 H36	7.290	-3.860	15.190	 H	1	UNK0	0.000	
34	 H20	1.100	1.210	14.860	 H	1	UNK0	0.000	
35	 H35	7.180	-6.000	16.250	 H	1	UNK0	0.000	
36	 H01	4.560	-1.210	18.440	 H	1	UNK0	0.000	
37	 H02	3.870	2.880	17.480	 H	1	UNK0	0.000	
38	  C1	4.230	0.870	18.110	C.2	1	UNK0	0.000	
39	  C2	4.400	-0.450	17.690	C.2	1	UNK0	0.000	
40	  C3	4.480	-0.790	16.320	C.2	1	UNK0	0.000	
41	  C4	4.320	0.250	15.390	C.2	1	UNK0	0.000	
42	  C5	4.020	1.550	15.780	C.2	1	UNK0	0.000	
43	  C6	4.000	1.860	17.140	C.2	1	UNK0	0.000	
44	  O1	4.510	0.010	14.060	O.3	1	UNK0	0.000	
45	  N1	4.610	1.250	19.410	N.pl3	1	UNK0	0.000	
46	  C7	8.340	-0.810	19.030	C.2	1	UNK0	0.000	
47	  C8	9.450	-0.080	18.620	C.2	1	UNK0	0.000	
48	  C9	9.390	1.300	18.520	C.2	1	UNK0	0.000	
49	 C10	8.210	1.990	18.850	C.2	1	UNK0	0.000	
50	 C11	7.060	1.260	19.280	C.2	1	UNK0	0.000	
51	 C12	7.170	-0.150	19.380	C.2	1	UNK0	0.000	
52	 C13	5.840	1.950	19.520	C.2	1	UNK0	0.000	
53	 C14	5.870	3.360	19.460	C.2	1	UNK0	0.000	
54	 C15	4.760	4.150	19.840	C.2	1	UNK0	0.000	
55	 C16	4.810	5.540	19.750	C.2	1	UNK0	0.000	
56	 C17	5.920	6.170	19.190	C.2	1	UNK0	0.000	
57	 C18	7.020	5.410	18.780	C.2	1	UNK0	0.000	
58	 C19	7.040	4.020	18.990	C.2	1	UNK0	0.000	
59	  N2	8.150	3.320	18.720	N.pl3	1	UNK0	0.000	
60	 C20	9.510	-2.790	18.600	C.3	1	UNK0	0.000	
61	  O2	8.310	-2.200	19.100	O.3	1	UNK0	0.000	
62	 C21	3.810	2.620	14.740	C.3	1	UNK0	0.000	
63	  N3	2.670	2.310	13.880	N.4	1	UNK0	0.000	
64	 C22	1.330	2.250	14.630	C.3	1	UNK0	0.000	
65	 C23	0.270	2.930	13.720	C.3	1	UNK0	0.000	
66	 C24	1.060	3.880	12.810	C.3	1	UNK0	0.000	
67	 C25	2.490	3.280	12.700	C.3	1	UNK0	0.000	
68	 C26	4.660	-2.200	15.850	C.3	1	UNK0	0.000	
69	  N4	5.830	-2.910	16.410	N.4	1	UNK0	0.000	
70	 C27	5.630	-3.450	17.840	C.3	1	UNK0	0.000	
71	 C28	6.320	-4.840	17.910	C.3	1	UNK0	0.000	
72	 C29	6.320	-5.360	16.460	C.3	1	UNK0	0.000	
73	 C30	6.300	-4.090	15.550	C.3	1	UNK0	0.000	
@<TRIPOS>BOND
1 38 39 1
2 38 43 2
3 38 45 1
4 36 39 1
5 39 40 2
6 40 41 1
7 40 68 1
8 41 42 2
9 41 44 1
10 42 43 1
11 42 62 1
12 37 43 1
13 1 44 1
14 3 45 1
15 45 52 1
16 46 47 2
17 46 51 1
18 46 61 1
19 2 47 1
20 47 48 1
21 7 48 1
22 48 49 2
23 49 50 1
24 49 59 1
25 50 51 2
26 50 52 1
27 15 51 1
28 52 53 2
29 53 54 1
30 53 58 1
31 6 54 1
32 54 55 2
33 5 55 1
34 55 56 1
35 4 56 1
36 56 57 2
37 8 57 1
38 57 58 1
39 58 59 2
40 16 59 1
41 10 60 1
42 12 60 1
43 14 60 1
44 60 61 1
45 11 62 1
46 30 62 1
47 62 63 1
48 9 63 1
49 63 64 1
50 63 67 1
51 18 64 1
52 34 64 1
53 64 65 1
54 17 65 1
55 31 65 1
56 65 66 1
57 20 66 1
58 21 66 1
59 66 67 1
60 13 67 1
61 19 67 1
62 24 68 1
63 25 68 1
64 68 69 1
65 23 69 1
66 69 70 1
67 69 73 1
68 26 70 1
69 29 70 1
70 70 71 1
71 27 71 1
72 28 71 1
73 71 72 1
74 22 72 1
75 35 72 1
76 72 73 1
77 32 73 1
78 33 73 1
@<TRIPOS>SUBSTRUCTURE
1	UNK0	1	GROUP	1 ****	UNK
