# created with PyMOL 2.5.0
@<TRIPOS>MOLECULE
ZINC31490747
73 78 1                 
SMALL
USER_CHARGES
@<TRIPOS>ATOM
1	 H03	5.190	0.230	11.160	 H	1	UNK0	0.000	
2	 H05	11.440	-1.320	17.400	 H	1	UNK0	0.000	
3	 H04	4.870	-0.300	17.710	 H	1	UNK0	0.000	
4	 H10	6.260	4.840	21.460	 H	1	UNK0	0.000	
5	 H09	4.240	4.110	20.240	 H	1	UNK0	0.000	
6	 H08	4.360	2.250	18.630	 H	1	UNK0	0.000	
7	 H06	11.110	0.520	18.920	 H	1	UNK0	0.000	
8	 H11	8.410	3.740	21.070	 H	1	UNK0	0.000	
9	 H18	4.920	2.780	11.770	 H	1	UNK0	0.000	
10	 H13	11.530	-2.780	16.050	 H	1	UNK0	0.000	
11	 H16	7.090	3.090	12.820	 H	1	UNK0	0.000	
12	 H15	10.600	-4.080	15.310	 H	1	UNK0	0.000	
13	 H26	6.600	5.150	11.620	 H	1	UNK0	0.000	
14	 H14	10.450	-3.810	17.050	 H	1	UNK0	0.000	
15	 H07	7.300	-1.230	16.290	 H	1	UNK0	0.000	
16	 H12	9.620	2.000	19.990	 H	1	UNK0	0.000	
17	 H22	2.760	4.480	10.840	 H	1	UNK0	0.000	
18	 H19	4.200	5.050	13.480	 H	1	UNK0	0.000	
19	 H25	6.210	3.920	10.370	 H	1	UNK0	0.000	
20	 H24	4.490	5.360	9.550	 H	1	UNK0	0.000	
21	 H23	4.930	6.540	10.790	 H	1	UNK0	0.000	
22	 H34	6.030	-5.310	11.620	 H	1	UNK0	0.000	
23	 H29	5.760	-1.510	11.230	 H	1	UNK0	0.000	
24	 H28	3.950	-2.360	13.430	 H	1	UNK0	0.000	
25	 H27	3.560	-1.240	12.100	 H	1	UNK0	0.000	
26	 H30	6.360	-2.960	13.710	 H	1	UNK0	0.000	
27	 H33	8.060	-3.160	11.180	 H	1	UNK0	0.000	
28	 H32	8.000	-4.330	12.500	 H	1	UNK0	0.000	
29	 H31	7.300	-1.650	12.910	 H	1	UNK0	0.000	
30	 H17	6.140	3.980	14.040	 H	1	UNK0	0.000	
31	 H21	2.800	6.030	11.710	 H	1	UNK0	0.000	
32	 H37	4.190	-3.890	11.720	 H	1	UNK0	0.000	
33	 H36	4.690	-3.090	10.200	 H	1	UNK0	0.000	
34	 H20	3.210	3.610	13.060	 H	1	UNK0	0.000	
35	 H35	6.560	-4.570	10.100	 H	1	UNK0	0.000	
36	 H01	4.570	-1.460	15.530	 H	1	UNK0	0.000	
37	 H02	6.130	2.500	15.860	 H	1	UNK0	0.000	
38	  C1	5.310	0.530	15.850	C.2	1	UNK0	0.000	
39	  C2	4.860	-0.530	15.040	C.2	1	UNK0	0.000	
40	  C3	4.820	-0.410	13.640	C.2	1	UNK0	0.000	
41	  C4	5.190	0.810	13.070	C.2	1	UNK0	0.000	
42	  C5	5.640	1.890	13.850	C.2	1	UNK0	0.000	
43	  C6	5.740	1.700	15.230	C.2	1	UNK0	0.000	
44	  O1	5.040	1.040	11.710	O.3	1	UNK0	0.000	
45	  N1	5.460	0.380	17.240	N.pl3	1	UNK0	0.000	
46	  C7	9.370	-1.420	16.760	C.2	1	UNK0	0.000	
47	  C8	10.440	-0.930	17.510	C.2	1	UNK0	0.000	
48	  C9	10.250	0.140	18.390	C.2	1	UNK0	0.000	
49	 C10	8.980	0.700	18.560	C.2	1	UNK0	0.000	
50	 C11	7.870	0.220	17.800	C.2	1	UNK0	0.000	
51	 C12	8.110	-0.830	16.890	C.2	1	UNK0	0.000	
52	 C13	6.600	0.830	17.970	C.2	1	UNK0	0.000	
53	 C14	6.480	1.870	18.920	C.2	1	UNK0	0.000	
54	 C15	5.260	2.540	19.160	C.2	1	UNK0	0.000	
55	 C16	5.190	3.600	20.070	C.2	1	UNK0	0.000	
56	 C17	6.320	4.020	20.750	C.2	1	UNK0	0.000	
57	 C18	7.540	3.380	20.530	C.2	1	UNK0	0.000	
58	 C19	7.630	2.310	19.630	C.2	1	UNK0	0.000	
59	  N2	8.810	1.710	19.430	N.pl3	1	UNK0	0.000	
60	 C20	10.580	-3.310	16.090	C.3	1	UNK0	0.000	
61	  O2	9.460	-2.450	15.830	O.3	1	UNK0	0.000	
62	 C21	6.100	3.200	13.280	C.3	1	UNK0	0.000	
63	  N3	5.190	3.680	12.220	N.4	1	UNK0	0.000	
64	 C22	3.910	4.360	12.690	C.3	1	UNK0	0.000	
65	 C23	3.390	5.150	11.440	C.3	1	UNK0	0.000	
66	 C24	4.660	5.500	10.620	C.3	1	UNK0	0.000	
67	 C25	5.800	4.570	11.140	C.3	1	UNK0	0.000	
68	 C26	4.350	-1.560	12.790	C.3	1	UNK0	0.000	
69	  N4	5.430	-2.170	11.990	N.4	1	UNK0	0.000	
70	 C27	6.690	-2.550	12.760	C.3	1	UNK0	0.000	
71	 C28	7.400	-3.640	11.900	C.3	1	UNK0	0.000	
72	 C29	6.270	-4.360	11.130	C.3	1	UNK0	0.000	
73	 C30	5.020	-3.420	11.190	C.3	1	UNK0	0.000	
@<TRIPOS>BOND
1 38 39 1
2 38 43 2
3 38 45 1
4 36 39 1
5 39 40 2
6 40 41 1
7 40 68 1
8 41 42 2
9 41 44 1
10 42 43 1
11 42 62 1
12 37 43 1
13 1 44 1
14 3 45 1
15 45 52 1
16 46 47 2
17 46 51 1
18 46 61 1
19 2 47 1
20 47 48 1
21 7 48 1
22 48 49 2
23 49 50 1
24 49 59 1
25 50 51 2
26 50 52 1
27 15 51 1
28 52 53 2
29 53 54 1
30 53 58 1
31 6 54 1
32 54 55 2
33 5 55 1
34 55 56 1
35 4 56 1
36 56 57 2
37 8 57 1
38 57 58 1
39 58 59 2
40 16 59 1
41 10 60 1
42 12 60 1
43 14 60 1
44 60 61 1
45 11 62 1
46 30 62 1
47 62 63 1
48 9 63 1
49 63 64 1
50 63 67 1
51 18 64 1
52 34 64 1
53 64 65 1
54 17 65 1
55 31 65 1
56 65 66 1
57 20 66 1
58 21 66 1
59 66 67 1
60 13 67 1
61 19 67 1
62 24 68 1
63 25 68 1
64 68 69 1
65 23 69 1
66 69 70 1
67 69 73 1
68 26 70 1
69 29 70 1
70 70 71 1
71 27 71 1
72 28 71 1
73 71 72 1
74 22 72 1
75 35 72 1
76 72 73 1
77 32 73 1
78 33 73 1
@<TRIPOS>SUBSTRUCTURE
1	UNK0	1	GROUP	1 ****	UNK
