# created with PyMOL 2.5.0
@<TRIPOS>MOLECULE
ZINC31490747
73 78 1                 
SMALL
USER_CHARGES
@<TRIPOS>ATOM
1	 H03	5.020	3.090	14.490	 H	1	UNK0	0.000	
2	 H05	10.270	-0.660	18.960	 H	1	UNK0	0.000	
3	 H04	4.410	1.900	20.850	 H	1	UNK0	0.000	
4	 H10	7.480	4.780	25.610	 H	1	UNK0	0.000	
5	 H09	5.280	5.150	24.540	 H	1	UNK0	0.000	
6	 H08	4.730	4.070	22.400	 H	1	UNK0	0.000	
7	 H06	10.600	0.520	21.060	 H	1	UNK0	0.000	
8	 H11	9.130	3.320	24.580	 H	1	UNK0	0.000	
9	 H18	5.570	4.900	14.290	 H	1	UNK0	0.000	
10	 H13	8.710	-1.860	16.090	 H	1	UNK0	0.000	
11	 H16	7.030	4.210	15.710	 H	1	UNK0	0.000	
12	 H15	9.270	-2.160	17.740	 H	1	UNK0	0.000	
13	 H26	7.380	6.750	15.190	 H	1	UNK0	0.000	
14	 H14	9.880	-0.740	16.800	 H	1	UNK0	0.000	
15	 H07	6.300	0.880	18.660	 H	1	UNK0	0.000	
16	 H12	9.760	1.990	22.720	 H	1	UNK0	0.000	
17	 H22	3.720	7.620	13.940	 H	1	UNK0	0.000	
18	 H19	4.070	6.080	16.530	 H	1	UNK0	0.000	
19	 H25	6.580	6.610	13.580	 H	1	UNK0	0.000	
20	 H24	5.770	8.820	14.140	 H	1	UNK0	0.000	
21	 H23	5.870	8.460	15.870	 H	1	UNK0	0.000	
22	 H34	1.620	-2.410	15.730	 H	1	UNK0	0.000	
23	 H29	3.640	0.850	14.840	 H	1	UNK0	0.000	
24	 H28	1.900	0.680	17.140	 H	1	UNK0	0.000	
25	 H27	1.790	1.870	15.810	 H	1	UNK0	0.000	
26	 H30	3.740	-0.760	17.230	 H	1	UNK0	0.000	
27	 H33	4.460	-2.270	14.680	 H	1	UNK0	0.000	
28	 H32	3.900	-2.960	16.220	 H	1	UNK0	0.000	
29	 H31	5.060	-0.400	16.060	 H	1	UNK0	0.000	
30	 H17	6.590	5.490	16.880	 H	1	UNK0	0.000	
31	 H21	3.520	8.230	15.590	 H	1	UNK0	0.000	
32	 H37	1.050	-0.240	15.000	 H	1	UNK0	0.000	
33	 H36	2.210	-0.290	13.630	 H	1	UNK0	0.000	
34	 H20	3.420	5.490	14.970	 H	1	UNK0	0.000	
35	 H35	2.190	-2.660	14.070	 H	1	UNK0	0.000	
36	 H01	3.150	1.360	19.060	 H	1	UNK0	0.000	
37	 H02	6.320	4.200	18.770	 H	1	UNK0	0.000	
38	  C1	4.770	2.760	19.060	C.2	1	UNK0	0.000	
39	  C2	3.730	2.030	18.450	C.2	1	UNK0	0.000	
40	  C3	3.530	2.110	17.070	C.2	1	UNK0	0.000	
41	  C4	4.330	2.950	16.310	C.2	1	UNK0	0.000	
42	  C5	5.310	3.780	16.900	C.2	1	UNK0	0.000	
43	  C6	5.520	3.630	18.270	C.2	1	UNK0	0.000	
44	  O1	4.150	2.900	14.930	O.3	1	UNK0	0.000	
45	  N1	5.050	2.530	20.390	N.pl3	1	UNK0	0.000	
46	  C7	8.240	0.070	18.680	C.2	1	UNK0	0.000	
47	  C8	9.470	-0.030	19.350	C.2	1	UNK0	0.000	
48	  C9	9.650	0.650	20.550	C.2	1	UNK0	0.000	
49	 C10	8.650	1.460	21.080	C.2	1	UNK0	0.000	
50	 C11	7.390	1.600	20.400	C.2	1	UNK0	0.000	
51	 C12	7.230	0.860	19.210	C.2	1	UNK0	0.000	
52	 C13	6.380	2.430	20.960	C.2	1	UNK0	0.000	
53	 C14	6.640	3.040	22.210	C.2	1	UNK0	0.000	
54	 C15	5.710	3.880	22.860	C.2	1	UNK0	0.000	
55	 C16	6.000	4.500	24.070	C.2	1	UNK0	0.000	
56	 C17	7.250	4.290	24.670	C.2	1	UNK0	0.000	
57	 C18	8.180	3.470	24.060	C.2	1	UNK0	0.000	
58	 C19	7.920	2.850	22.840	C.2	1	UNK0	0.000	
59	  N2	8.850	2.090	22.250	N.pl3	1	UNK0	0.000	
60	 C20	9.010	-1.370	17.020	C.3	1	UNK0	0.000	
61	  O2	7.920	-0.600	17.480	O.3	1	UNK0	0.000	
62	 C21	6.200	4.760	16.160	C.3	1	UNK0	0.000	
63	  N3	5.570	5.560	15.100	N.4	1	UNK0	0.000	
64	 C22	4.170	6.110	15.440	C.3	1	UNK0	0.000	
65	 C23	4.130	7.590	14.950	C.3	1	UNK0	0.000	
66	 C24	5.600	8.050	14.900	C.3	1	UNK0	0.000	
67	 C25	6.430	6.760	14.640	C.3	1	UNK0	0.000	
68	 C26	2.470	1.250	16.390	C.3	1	UNK0	0.000	
69	  N4	3.090	0.270	15.480	N.4	1	UNK0	0.000	
70	 C27	4.020	-0.740	16.170	C.3	1	UNK0	0.000	
71	 C28	3.760	-2.120	15.520	C.3	1	UNK0	0.000	
72	 C29	2.330	-2.050	14.950	C.3	1	UNK0	0.000	
73	 C30	2.040	-0.540	14.690	C.3	1	UNK0	0.000	
@<TRIPOS>BOND
1 38 39 1
2 38 43 2
3 38 45 1
4 36 39 1
5 39 40 2
6 40 41 1
7 40 68 1
8 41 42 2
9 41 44 1
10 42 43 1
11 42 62 1
12 37 43 1
13 1 44 1
14 3 45 1
15 45 52 1
16 46 47 2
17 46 51 1
18 46 61 1
19 2 47 1
20 47 48 1
21 7 48 1
22 48 49 2
23 49 50 1
24 49 59 1
25 50 51 2
26 50 52 1
27 15 51 1
28 52 53 2
29 53 54 1
30 53 58 1
31 6 54 1
32 54 55 2
33 5 55 1
34 55 56 1
35 4 56 1
36 56 57 2
37 8 57 1
38 57 58 1
39 58 59 2
40 16 59 1
41 10 60 1
42 12 60 1
43 14 60 1
44 60 61 1
45 11 62 1
46 30 62 1
47 62 63 1
48 9 63 1
49 63 64 1
50 63 67 1
51 18 64 1
52 34 64 1
53 64 65 1
54 17 65 1
55 31 65 1
56 65 66 1
57 20 66 1
58 21 66 1
59 66 67 1
60 13 67 1
61 19 67 1
62 24 68 1
63 25 68 1
64 68 69 1
65 23 69 1
66 69 70 1
67 69 73 1
68 26 70 1
69 29 70 1
70 70 71 1
71 27 71 1
72 28 71 1
73 71 72 1
74 22 72 1
75 35 72 1
76 72 73 1
77 32 73 1
78 33 73 1
@<TRIPOS>SUBSTRUCTURE
1	UNK0	1	GROUP	1 ****	UNK
