# created with PyMOL 2.5.0
@<TRIPOS>MOLECULE
ZINC31490747
73 78 1                 
SMALL
USER_CHARGES
@<TRIPOS>ATOM
1	 H03	5.730	1.670	13.410	 H	1	UNK0	0.000	
2	 H05	9.840	-2.940	23.190	 H	1	UNK0	0.000	
3	 H04	6.340	-0.500	19.300	 H	1	UNK0	0.000	
4	 H10	10.140	5.470	20.720	 H	1	UNK0	0.000	
5	 H09	8.300	5.180	19.090	 H	1	UNK0	0.000	
6	 H08	7.210	3.030	18.850	 H	1	UNK0	0.000	
7	 H06	9.920	-0.420	22.690	 H	1	UNK0	0.000	
8	 H11	10.890	3.580	22.060	 H	1	UNK0	0.000	
9	 H18	5.080	4.210	14.580	 H	1	UNK0	0.000	
10	 H13	7.060	-4.390	19.950	 H	1	UNK0	0.000	
11	 H16	7.070	3.320	14.060	 H	1	UNK0	0.000	
12	 H15	6.100	-3.860	21.380	 H	1	UNK0	0.000	
13	 H26	7.390	5.980	14.910	 H	1	UNK0	0.000	
14	 H14	6.710	-5.520	21.270	 H	1	UNK0	0.000	
15	 H07	7.010	-2.120	19.970	 H	1	UNK0	0.000	
16	 H12	10.630	1.340	22.630	 H	1	UNK0	0.000	
17	 H22	4.140	6.690	17.030	 H	1	UNK0	0.000	
18	 H19	5.970	4.440	17.310	 H	1	UNK0	0.000	
19	 H25	6.230	5.910	13.530	 H	1	UNK0	0.000	
20	 H24	4.630	7.220	14.790	 H	1	UNK0	0.000	
21	 H23	6.100	7.950	15.470	 H	1	UNK0	0.000	
22	 H34	3.200	-3.550	12.500	 H	1	UNK0	0.000	
23	 H29	5.610	-0.910	13.990	 H	1	UNK0	0.000	
24	 H28	3.360	-1.150	15.800	 H	1	UNK0	0.000	
25	 H27	3.220	0.090	14.540	 H	1	UNK0	0.000	
26	 H30	4.290	-3.080	15.390	 H	1	UNK0	0.000	
27	 H33	6.150	-3.700	13.060	 H	1	UNK0	0.000	
28	 H32	4.870	-4.740	13.710	 H	1	UNK0	0.000	
29	 H31	6.030	-2.670	15.230	 H	1	UNK0	0.000	
30	 H17	7.790	3.900	15.600	 H	1	UNK0	0.000	
31	 H21	5.840	6.730	17.490	 H	1	UNK0	0.000	
32	 H37	3.000	-1.260	12.860	 H	1	UNK0	0.000	
33	 H36	4.590	-0.920	12.110	 H	1	UNK0	0.000	
34	 H20	4.310	4.340	16.640	 H	1	UNK0	0.000	
35	 H35	4.540	-3.210	11.400	 H	1	UNK0	0.000	
36	 H01	4.960	-0.800	17.680	 H	1	UNK0	0.000	
37	 H02	7.980	2.210	17.260	 H	1	UNK0	0.000	
38	  C1	6.470	0.730	17.710	C.2	1	UNK0	0.000	
39	  C2	5.380	0.030	17.150	C.2	1	UNK0	0.000	
40	  C3	4.880	0.360	15.880	C.2	1	UNK0	0.000	
41	  C4	5.370	1.500	15.250	C.2	1	UNK0	0.000	
42	  C5	6.430	2.230	15.770	C.2	1	UNK0	0.000	
43	  C6	7.060	1.740	16.940	C.2	1	UNK0	0.000	
44	  O1	4.940	1.860	14.010	O.3	1	UNK0	0.000	
45	  N1	6.810	0.350	19.060	N.pl3	1	UNK0	0.000	
46	  C7	8.400	-2.760	21.570	C.2	1	UNK0	0.000	
47	  C8	9.300	-2.150	22.440	C.2	1	UNK0	0.000	
48	  C9	9.100	-0.580	22.040	C.2	1	UNK0	0.000	
49	 C10	9.630	0.030	21.280	C.2	1	UNK0	0.000	
50	 C11	8.400	-0.450	20.630	C.2	1	UNK0	0.000	
51	 C12	7.830	-1.900	20.560	C.2	1	UNK0	0.000	
52	 C13	7.850	0.670	19.980	C.2	1	UNK0	0.000	
53	 C14	8.420	1.990	20.220	C.2	1	UNK0	0.000	
54	 C15	8.020	3.110	19.540	C.2	1	UNK0	0.000	
55	 C16	8.630	4.350	19.690	C.2	1	UNK0	0.000	
56	 C17	9.670	4.510	20.600	C.2	1	UNK0	0.000	
57	 C18	10.090	3.460	21.370	C.2	1	UNK0	0.000	
58	 C19	9.460	2.260	21.180	C.2	1	UNK0	0.000	
59	  N2	9.980	1.290	21.770	N.pl3	1	UNK0	0.000	
60	 C20	6.930	-4.470	21.040	C.3	1	UNK0	0.000	
61	  O2	8.140	-4.110	21.710	O.3	1	UNK0	0.000	
62	 C21	6.900	3.480	15.130	C.3	1	UNK0	0.000	
63	  N3	5.830	4.560	15.170	N.4	1	UNK0	0.000	
64	 C22	5.270	4.840	16.570	C.3	1	UNK0	0.000	
65	 C23	5.150	6.390	16.720	C.3	1	UNK0	0.000	
66	 C24	5.530	7.010	15.360	C.3	1	UNK0	0.000	
67	 C25	6.350	5.910	14.620	C.3	1	UNK0	0.000	
68	 C26	3.930	-0.500	15.120	C.3	1	UNK0	0.000	
69	  N4	4.680	-1.380	14.180	N.4	1	UNK0	0.000	
70	 C27	5.080	-2.760	14.700	C.3	1	UNK0	0.000	
71	 C28	5.130	-3.700	13.460	C.3	1	UNK0	0.000	
72	 C29	4.190	-3.080	12.420	C.3	1	UNK0	0.000	
73	 C30	4.040	-1.570	12.800	C.3	1	UNK0	0.000	
@<TRIPOS>BOND
1 38 39 1
2 38 43 2
3 38 45 1
4 36 39 1
5 39 40 2
6 40 41 1
7 40 68 1
8 41 42 2
9 41 44 1
10 42 43 1
11 42 62 1
12 37 43 1
13 1 44 1
14 3 45 1
15 45 52 1
16 46 47 2
17 46 51 1
18 46 61 1
19 2 47 1
20 47 48 1
21 7 48 1
22 48 49 2
23 49 50 1
24 49 59 1
25 50 51 2
26 50 52 1
27 15 51 1
28 52 53 2
29 53 54 1
30 53 58 1
31 6 54 1
32 54 55 2
33 5 55 1
34 55 56 1
35 4 56 1
36 56 57 2
37 8 57 1
38 57 58 1
39 58 59 2
40 16 59 1
41 10 60 1
42 12 60 1
43 14 60 1
44 60 61 1
45 11 62 1
46 30 62 1
47 62 63 1
48 9 63 1
49 63 64 1
50 63 67 1
51 18 64 1
52 34 64 1
53 64 65 1
54 17 65 1
55 31 65 1
56 65 66 1
57 20 66 1
58 21 66 1
59 66 67 1
60 13 67 1
61 19 67 1
62 24 68 1
63 25 68 1
64 68 69 1
65 23 69 1
66 69 70 1
67 69 73 1
68 26 70 1
69 29 70 1
70 70 71 1
71 27 71 1
72 28 71 1
73 71 72 1
74 22 72 1
75 35 72 1
76 72 73 1
77 32 73 1
78 33 73 1
@<TRIPOS>SUBSTRUCTURE
1	UNK0	1	GROUP	1 ****	UNK
