# created with PyMOL 2.5.0
@<TRIPOS>MOLECULE
ZINC31490747
73 78 1                 
SMALL
USER_CHARGES
@<TRIPOS>ATOM
1	 H03	6.190	3.240	12.350	 H	1	UNK0	0.000	
2	 H05	8.840	-2.210	22.100	 H	1	UNK0	0.000	
3	 H04	5.620	0.340	17.910	 H	1	UNK0	0.000	
4	 H10	8.720	6.400	20.220	 H	1	UNK0	0.000	
5	 H09	6.710	6.280	18.860	 H	1	UNK0	0.000	
6	 H08	5.700	4.070	18.320	 H	1	UNK0	0.000	
7	 H06	8.600	-0.040	23.100	 H	1	UNK0	0.000	
8	 H11	9.570	4.430	21.310	 H	1	UNK0	0.000	
9	 H18	5.900	5.820	13.710	 H	1	UNK0	0.000	
10	 H13	8.570	-2.470	17.830	 H	1	UNK0	0.000	
11	 H16	7.940	4.860	13.910	 H	1	UNK0	0.000	
12	 H15	6.950	-3.170	18.170	 H	1	UNK0	0.000	
13	 H26	8.100	7.340	14.780	 H	1	UNK0	0.000	
14	 H14	8.390	-4.210	18.110	 H	1	UNK0	0.000	
15	 H07	6.920	-1.070	18.470	 H	1	UNK0	0.000	
16	 H12	9.040	2.170	22.050	 H	1	UNK0	0.000	
17	 H22	4.180	7.960	15.160	 H	1	UNK0	0.000	
18	 H19	5.750	5.800	16.600	 H	1	UNK0	0.000	
19	 H25	7.000	7.750	13.420	 H	1	UNK0	0.000	
20	 H24	6.040	9.380	14.900	 H	1	UNK0	0.000	
21	 H23	6.870	8.650	16.280	 H	1	UNK0	0.000	
22	 H34	3.220	-1.890	11.340	 H	1	UNK0	0.000	
23	 H29	5.630	1.080	12.150	 H	1	UNK0	0.000	
24	 H28	3.220	0.830	13.800	 H	1	UNK0	0.000	
25	 H27	3.570	2.210	12.740	 H	1	UNK0	0.000	
26	 H30	4.630	-0.990	13.930	 H	1	UNK0	0.000	
27	 H33	6.220	-1.860	11.490	 H	1	UNK0	0.000	
28	 H32	5.100	-2.850	12.440	 H	1	UNK0	0.000	
29	 H31	6.310	-0.540	13.490	 H	1	UNK0	0.000	
30	 H17	7.940	5.210	15.660	 H	1	UNK0	0.000	
31	 H21	4.680	7.950	16.850	 H	1	UNK0	0.000	
32	 H37	2.980	0.440	11.280	 H	1	UNK0	0.000	
33	 H36	4.500	0.650	10.350	 H	1	UNK0	0.000	
34	 H20	4.440	5.580	15.390	 H	1	UNK0	0.000	
35	 H35	4.370	-1.720	10.010	 H	1	UNK0	0.000	
36	 H01	4.410	0.560	15.950	 H	1	UNK0	0.000	
37	 H02	7.590	3.260	16.910	 H	1	UNK0	0.000	
38	  C1	5.980	1.870	16.620	C.2	1	UNK0	0.000	
39	  C2	5.040	1.410	15.680	C.2	1	UNK0	0.000	
40	  C3	4.910	2.010	14.420	C.2	1	UNK0	0.000	
41	  C4	5.670	3.150	14.150	C.2	1	UNK0	0.000	
42	  C5	6.590	3.660	15.060	C.2	1	UNK0	0.000	
43	  C6	6.790	2.950	16.250	C.2	1	UNK0	0.000	
44	  O1	5.560	3.770	12.930	O.3	1	UNK0	0.000	
45	  N1	5.980	1.290	17.910	N.pl3	1	UNK0	0.000	
46	  C7	7.960	-1.750	20.220	C.2	1	UNK0	0.000	
47	  C8	8.290	-1.450	21.550	C.2	1	UNK0	0.000	
48	  C9	8.080	-0.190	22.160	C.2	1	UNK0	0.000	
49	 C10	7.850	0.810	21.160	C.2	1	UNK0	0.000	
50	 C11	7.220	0.530	19.900	C.2	1	UNK0	0.000	
51	 C12	7.270	-0.810	19.460	C.2	1	UNK0	0.000	
52	 C13	6.740	1.590	19.080	C.2	1	UNK0	0.000	
53	 C14	7.130	2.910	19.460	C.2	1	UNK0	0.000	
54	 C15	6.580	4.110	18.950	C.2	1	UNK0	0.000	
55	 C16	7.140	5.350	19.230	C.2	1	UNK0	0.000	
56	 C17	8.280	5.430	20.010	C.2	1	UNK0	0.000	
57	 C18	8.770	4.280	20.620	C.2	1	UNK0	0.000	
58	 C19	8.150	3.050	20.440	C.2	1	UNK0	0.000	
59	  N2	8.430	2.010	21.240	N.pl3	1	UNK0	0.000	
60	 C20	8.020	-3.220	18.400	C.3	1	UNK0	0.000	
61	  O2	8.220	-3.050	19.800	O.3	1	UNK0	0.000	
62	 C21	7.320	4.930	14.800	C.3	1	UNK0	0.000	
63	  N3	6.390	6.070	14.590	N.4	1	UNK0	0.000	
64	 C22	5.310	6.180	15.680	C.3	1	UNK0	0.000	
65	 C23	4.990	7.700	15.840	C.3	1	UNK0	0.000	
66	 C24	6.270	8.430	15.400	C.3	1	UNK0	0.000	
67	 C25	7.050	7.450	14.470	C.3	1	UNK0	0.000	
68	 C26	4.020	1.430	13.360	C.3	1	UNK0	0.000	
69	  N4	4.780	0.540	12.460	N.4	1	UNK0	0.000	
70	 C27	5.310	-0.740	13.110	C.3	1	UNK0	0.000	
71	 C28	5.270	-1.850	12.020	C.3	1	UNK0	0.000	
72	 C29	4.160	-1.420	11.040	C.3	1	UNK0	0.000	
73	 C30	4.020	0.130	11.180	C.3	1	UNK0	0.000	
@<TRIPOS>BOND
1 38 39 1
2 38 43 2
3 38 45 1
4 36 39 1
5 39 40 2
6 40 41 1
7 40 68 1
8 41 42 2
9 41 44 1
10 42 43 1
11 42 62 1
12 37 43 1
13 1 44 1
14 3 45 1
15 45 52 1
16 46 47 2
17 46 51 1
18 46 61 1
19 2 47 1
20 47 48 1
21 7 48 1
22 48 49 2
23 49 50 1
24 49 59 1
25 50 51 2
26 50 52 1
27 15 51 1
28 52 53 2
29 53 54 1
30 53 58 1
31 6 54 1
32 54 55 2
33 5 55 1
34 55 56 1
35 4 56 1
36 56 57 2
37 8 57 1
38 57 58 1
39 58 59 2
40 16 59 1
41 10 60 1
42 12 60 1
43 14 60 1
44 60 61 1
45 11 62 1
46 30 62 1
47 62 63 1
48 9 63 1
49 63 64 1
50 63 67 1
51 18 64 1
52 34 64 1
53 64 65 1
54 17 65 1
55 31 65 1
56 65 66 1
57 20 66 1
58 21 66 1
59 66 67 1
60 13 67 1
61 19 67 1
62 24 68 1
63 25 68 1
64 68 69 1
65 23 69 1
66 69 70 1
67 69 73 1
68 26 70 1
69 29 70 1
70 70 71 1
71 27 71 1
72 28 71 1
73 71 72 1
74 22 72 1
75 35 72 1
76 72 73 1
77 32 73 1
78 33 73 1
@<TRIPOS>SUBSTRUCTURE
1	UNK0	1	GROUP	1 ****	UNK
