# created with PyMOL 2.5.0
@<TRIPOS>MOLECULE
ZINC31490747
73 78 1                 
SMALL
USER_CHARGES
@<TRIPOS>ATOM
1	 H03	7.210	-3.680	8.980	 H	1	UNK0	0.000	
2	 H05	10.940	-1.060	17.380	 H	1	UNK0	0.000	
3	 H04	0.490	1.400	19.100	 H	1	UNK0	0.000	
4	 H10	4.450	-1.220	19.080	 H	1	UNK0	0.000	
5	 H09	3.970	-4.030	20.220	 H	1	UNK0	0.000	
6	 H08	4.970	0.560	20.010	 H	1	UNK0	0.000	
7	 H06	7.680	-2.510	15.540	 H	1	UNK0	0.000	
8	 H11	5.540	-3.070	18.790	 H	1	UNK0	0.000	
9	 H18	-3.560	8.530	20.490	 H	1	UNK0	0.000	
10	 H13	5.560	-18.660	12.840	 H	1	UNK0	0.000	
11	 H16	-0.710	-1.690	22.640	 H	1	UNK0	0.000	
12	 H15	8.740	-13.540	14.230	 H	1	UNK0	0.000	
13	 H26	-2.200	5.230	15.630	 H	1	UNK0	0.000	
14	 H14	6.150	-18.160	13.210	 H	1	UNK0	0.000	
15	 H07	14.080	2.770	18.490	 H	1	UNK0	0.000	
16	 H12	8.510	-2.790	17.810	 H	1	UNK0	0.000	
17	 H22	-5.120	3.830	18.480	 H	1	UNK0	0.000	
18	 H19	-3.400	6.510	16.380	 H	1	UNK0	0.000	
19	 H25	-3.560	6.900	14.930	 H	1	UNK0	0.000	
20	 H24	-6.140	8.260	16.590	 H	1	UNK0	0.000	
21	 H23	-6.370	8.840	16.450	 H	1	UNK0	0.000	
22	 H34	-5.140	1.430	15.280	 H	1	UNK0	0.000	
23	 H29	-7.400	-1.080	12.790	 H	1	UNK0	0.000	
24	 H28	7.210	1.260	18.110	 H	1	UNK0	0.000	
25	 H27	-0.780	0.660	12.470	 H	1	UNK0	0.000	
26	 H30	-6.170	-0.190	14.320	 H	1	UNK0	0.000	
27	 H33	-4.960	-0.650	17.070	 H	1	UNK0	0.000	
28	 H32	-3.980	-1.670	15.630	 H	1	UNK0	0.000	
29	 H31	-7.510	0.110	17.090	 H	1	UNK0	0.000	
30	 H17	-1.330	0.680	24.870	 H	1	UNK0	0.000	
31	 H21	-4.620	8.730	15.130	 H	1	UNK0	0.000	
32	 H37	-6.670	1.680	13.360	 H	1	UNK0	0.000	
33	 H36	-9.950	-3.670	18.290	 H	1	UNK0	0.000	
34	 H20	-1.020	5.560	12.980	 H	1	UNK0	0.000	
35	 H35	-6.370	0.590	16.200	 H	1	UNK0	0.000	
36	 H01	-0.780	-6.220	18.140	 H	1	UNK0	0.000	
37	 H02	3.760	-5.800	18.560	 H	1	UNK0	0.000	
38	  C1	-0.600	-0.320	15.460	C.2	1	UNK0	0.000	
39	  C2	0.310	-7.170	17.740	C.2	1	UNK0	0.000	
40	  C3	-1.810	-6.430	15.100	C.2	1	UNK0	0.000	
41	  C4	-0.210	-6.360	14.830	C.2	1	UNK0	0.000	
42	  C5	4.210	-6.850	17.260	C.2	1	UNK0	0.000	
43	  C6	3.510	-6.380	18.710	C.2	1	UNK0	0.000	
44	  O1	2.780	-1.940	9.460	O.3	1	UNK0	0.000	
45	  N1	2.750	4.540	18.090	N.pl3	1	UNK0	0.000	
46	  C7	10.850	-0.130	19.850	C.2	1	UNK0	0.000	
47	  C8	7.210	-1.900	19.450	C.2	1	UNK0	0.000	
48	  C9	8.960	-2.290	18.920	C.2	1	UNK0	0.000	
49	 C10	9.080	-1.090	18.750	C.2	1	UNK0	0.000	
50	 C11	5.460	4.070	23.670	C.2	1	UNK0	0.000	
51	 C12	10.160	1.030	19.850	C.2	1	UNK0	0.000	
52	 C13	2.910	-0.640	18.770	C.2	1	UNK0	0.000	
53	 C14	6.650	-0.090	19.260	C.2	1	UNK0	0.000	
54	 C15	7.010	-3.770	21.610	C.2	1	UNK0	0.000	
55	 C16	4.630	-0.970	19.350	C.2	1	UNK0	0.000	
56	 C17	4.950	-2.240	18.870	C.2	1	UNK0	0.000	
57	 C18	6.250	-2.420	18.650	C.2	1	UNK0	0.000	
58	 C19	6.190	-1.970	18.170	C.2	1	UNK0	0.000	
59	  N2	6.790	-2.790	17.620	N.pl3	1	UNK0	0.000	
60	 C20	5.710	-13.950	14.790	C.3	1	UNK0	0.000	
61	  O2	3.480	-8.790	17.250	O.3	1	UNK0	0.000	
62	 C21	0.220	2.640	19.980	C.3	1	UNK0	0.000	
63	  N3	-3.860	7.730	19.320	N.4	1	UNK0	0.000	
64	 C22	-2.610	7.000	16.330	C.3	1	UNK0	0.000	
65	 C23	-4.520	7.070	17.150	C.3	1	UNK0	0.000	
66	 C24	-7.050	7.490	16.640	C.3	1	UNK0	0.000	
67	 C25	-4.830	5.850	16.030	C.3	1	UNK0	0.000	
68	 C26	-1.370	-2.250	14.280	C.3	1	UNK0	0.000	
69	  N4	-12.220	-4.650	15.410	N.4	1	UNK0	0.000	
70	 C27	-6.270	-0.920	14.990	C.3	1	UNK0	0.000	
71	 C28	-5.360	-0.700	15.660	C.3	1	UNK0	0.000	
72	 C29	-5.960	1.380	15.180	C.3	1	UNK0	0.000	
73	 C30	-6.320	0.820	13.020	C.3	1	UNK0	0.000	
@<TRIPOS>BOND
1 38 39 1
2 38 43 2
3 38 45 1
4 36 39 1
5 39 40 2
6 40 41 1
7 40 68 1
8 41 42 2
9 41 44 1
10 42 43 1
11 42 62 1
12 37 43 1
13 1 44 1
14 3 45 1
15 45 52 1
16 46 47 2
17 46 51 1
18 46 61 1
19 2 47 1
20 47 48 1
21 7 48 1
22 48 49 2
23 49 50 1
24 49 59 1
25 50 51 2
26 50 52 1
27 15 51 1
28 52 53 2
29 53 54 1
30 53 58 1
31 6 54 1
32 54 55 2
33 5 55 1
34 55 56 1
35 4 56 1
36 56 57 2
37 8 57 1
38 57 58 1
39 58 59 2
40 16 59 1
41 10 60 1
42 12 60 1
43 14 60 1
44 60 61 1
45 11 62 1
46 30 62 1
47 62 63 1
48 9 63 1
49 63 64 1
50 63 67 1
51 18 64 1
52 34 64 1
53 64 65 1
54 17 65 1
55 31 65 1
56 65 66 1
57 20 66 1
58 21 66 1
59 66 67 1
60 13 67 1
61 19 67 1
62 24 68 1
63 25 68 1
64 68 69 1
65 23 69 1
66 69 70 1
67 69 73 1
68 26 70 1
69 29 70 1
70 70 71 1
71 27 71 1
72 28 71 1
73 71 72 1
74 22 72 1
75 35 72 1
76 72 73 1
77 32 73 1
78 33 73 1
@<TRIPOS>SUBSTRUCTURE
1	UNK0	1	GROUP	1 ****	UNK
