# created with PyMOL 2.5.0
@<TRIPOS>MOLECULE
ZINC31490747
73 78 1                 
SMALL
USER_CHARGES
@<TRIPOS>ATOM
1	 H03	5.770	3.540	14.170	 H	1	UNK0	0.000	
2	 H05	12.720	-1.590	21.570	 H	1	UNK0	0.000	
3	 H04	7.200	-1.100	18.210	 H	1	UNK0	0.000	
4	 H10	4.440	1.430	23.450	 H	1	UNK0	0.000	
5	 H09	3.780	1.440	21.070	 H	1	UNK0	0.000	
6	 H08	5.360	0.790	19.340	 H	1	UNK0	0.000	
7	 H06	10.970	-0.830	23.160	 H	1	UNK0	0.000	
8	 H11	6.700	0.730	24.100	 H	1	UNK0	0.000	
9	 H18	7.660	4.840	18.890	 H	1	UNK0	0.000	
10	 H13	13.020	-2.330	17.120	 H	1	UNK0	0.000	
11	 H16	7.270	5.160	16.030	 H	1	UNK0	0.000	
12	 H15	11.990	-0.900	17.270	 H	1	UNK0	0.000	
13	 H26	5.160	4.930	17.400	 H	1	UNK0	0.000	
14	 H14	11.310	-2.550	17.520	 H	1	UNK0	0.000	
15	 H07	10.080	-0.930	18.270	 H	1	UNK0	0.000	
16	 H12	8.730	-0.180	23.490	 H	1	UNK0	0.000	
17	 H22	6.310	8.450	18.820	 H	1	UNK0	0.000	
18	 H19	8.000	6.940	17.090	 H	1	UNK0	0.000	
19	 H25	5.440	4.370	19.080	 H	1	UNK0	0.000	
20	 H24	5.250	6.610	19.920	 H	1	UNK0	0.000	
21	 H23	4.140	6.790	18.550	 H	1	UNK0	0.000	
22	 H34	3.260	-1.500	12.150	 H	1	UNK0	0.000	
23	 H29	5.470	1.580	13.160	 H	1	UNK0	0.000	
24	 H28	3.840	0.330	15.250	 H	1	UNK0	0.000	
25	 H27	3.770	2.020	14.730	 H	1	UNK0	0.000	
26	 H30	5.440	-1.130	14.280	 H	1	UNK0	0.000	
27	 H33	6.080	-0.840	11.320	 H	1	UNK0	0.000	
28	 H32	5.500	-2.300	12.160	 H	1	UNK0	0.000	
29	 H31	6.800	-0.220	13.540	 H	1	UNK0	0.000	
30	 H17	8.680	4.550	16.890	 H	1	UNK0	0.000	
31	 H21	5.820	7.850	17.230	 H	1	UNK0	0.000	
32	 H37	2.800	0.630	13.030	 H	1	UNK0	0.000	
33	 H36	3.810	1.450	11.800	 H	1	UNK0	0.000	
34	 H20	8.170	6.930	18.880	 H	1	UNK0	0.000	
35	 H35	3.810	-0.680	10.680	 H	1	UNK0	0.000	
36	 H01	5.770	-0.530	16.550	 H	1	UNK0	0.000	
37	 H02	8.430	2.330	18.300	 H	1	UNK0	0.000	
38	  C1	7.140	0.800	17.520	C.2	1	UNK0	0.000	
39	  C2	6.140	0.500	16.600	C.2	1	UNK0	0.000	
40	  C3	5.580	1.490	15.780	C.2	1	UNK0	0.000	
41	  C4	6.080	2.790	15.890	C.2	1	UNK0	0.000	
42	  C5	7.090	3.130	16.790	C.2	1	UNK0	0.000	
43	  C6	7.620	2.120	17.600	C.2	1	UNK0	0.000	
44	  O1	5.540	3.780	15.110	O.3	1	UNK0	0.000	
45	  N1	7.650	-0.190	18.360	N.pl3	1	UNK0	0.000	
46	  C7	11.500	-1.340	19.840	C.2	1	UNK0	0.000	
47	  C8	11.750	-1.280	21.200	C.2	1	UNK0	0.000	
48	  C9	10.760	-0.840	22.090	C.2	1	UNK0	0.000	
49	 C10	9.520	-0.440	21.600	C.2	1	UNK0	0.000	
50	 C11	9.250	-0.450	20.200	C.2	1	UNK0	0.000	
51	 C12	10.270	-0.910	19.330	C.2	1	UNK0	0.000	
52	 C13	7.990	-0.010	19.720	C.2	1	UNK0	0.000	
53	 C14	7.020	0.400	20.690	C.2	1	UNK0	0.000	
54	 C15	5.700	0.780	20.360	C.2	1	UNK0	0.000	
55	 C16	4.780	1.160	21.350	C.2	1	UNK0	0.000	
56	 C17	5.160	1.150	22.680	C.2	1	UNK0	0.000	
57	 C18	6.440	0.750	23.050	C.2	1	UNK0	0.000	
58	 C19	7.370	0.370	22.070	C.2	1	UNK0	0.000	
59	  N2	8.570	-0.040	22.450	N.pl3	1	UNK0	0.000	
60	 C20	12.180	-1.900	17.670	C.3	1	UNK0	0.000	
61	  O2	12.530	-1.830	19.050	O.3	1	UNK0	0.000	
62	 C21	7.590	4.550	16.880	C.3	1	UNK0	0.000	
63	  N3	7.150	5.250	18.100	N.4	1	UNK0	0.000	
64	 C22	7.510	6.750	18.040	C.3	1	UNK0	0.000	
65	 C23	6.180	7.550	18.220	C.3	1	UNK0	0.000	
66	 C24	5.180	6.570	18.830	C.3	1	UNK0	0.000	
67	 C25	5.640	5.160	18.350	C.3	1	UNK0	0.000	
68	 C26	4.430	1.160	14.860	C.3	1	UNK0	0.000	
69	  N4	4.890	0.770	13.500	N.4	1	UNK0	0.000	
70	 C27	5.740	-0.500	13.440	C.3	1	UNK0	0.000	
71	 C28	5.400	-1.200	12.100	C.3	1	UNK0	0.000	
72	 C29	3.970	-0.760	11.760	C.3	1	UNK0	0.000	
73	 C30	3.740	0.600	12.490	C.3	1	UNK0	0.000	
@<TRIPOS>BOND
1 38 39 1
2 38 43 2
3 38 45 1
4 36 39 1
5 39 40 2
6 40 41 1
7 40 68 1
8 41 42 2
9 41 44 1
10 42 43 1
11 42 62 1
12 37 43 1
13 1 44 1
14 3 45 1
15 45 52 1
16 46 47 2
17 46 51 1
18 46 61 1
19 2 47 1
20 47 48 1
21 7 48 1
22 48 49 2
23 49 50 1
24 49 59 1
25 50 51 2
26 50 52 1
27 15 51 1
28 52 53 2
29 53 54 1
30 53 58 1
31 6 54 1
32 54 55 2
33 5 55 1
34 55 56 1
35 4 56 1
36 56 57 2
37 8 57 1
38 57 58 1
39 58 59 2
40 16 59 1
41 10 60 1
42 12 60 1
43 14 60 1
44 60 61 1
45 11 62 1
46 30 62 1
47 62 63 1
48 9 63 1
49 63 64 1
50 63 67 1
51 18 64 1
52 34 64 1
53 64 65 1
54 17 65 1
55 31 65 1
56 65 66 1
57 20 66 1
58 21 66 1
59 66 67 1
60 13 67 1
61 19 67 1
62 24 68 1
63 25 68 1
64 68 69 1
65 23 69 1
66 69 70 1
67 69 73 1
68 26 70 1
69 29 70 1
70 70 71 1
71 27 71 1
72 28 71 1
73 71 72 1
74 22 72 1
75 35 72 1
76 72 73 1
77 32 73 1
78 33 73 1
@<TRIPOS>SUBSTRUCTURE
1	UNK0	1	GROUP	1 ****	UNK
