# created with PyMOL 2.5.0
@<TRIPOS>MOLECULE
ZINC31490747
73 78 1                 
SMALL
USER_CHARGES
@<TRIPOS>ATOM
1	 H03	5.070	3.430	13.940	 H	1	UNK0	0.000	
2	 H05	11.500	-1.980	18.030	 H	1	UNK0	0.000	
3	 H04	6.090	0.310	19.140	 H	1	UNK0	0.000	
4	 H10	9.380	6.210	21.210	 H	1	UNK0	0.000	
5	 H09	7.020	5.570	21.540	 H	1	UNK0	0.000	
6	 H08	6.210	3.350	20.810	 H	1	UNK0	0.000	
7	 H06	12.110	0.190	18.980	 H	1	UNK0	0.000	
8	 H11	11.000	4.580	20.320	 H	1	UNK0	0.000	
9	 H18	4.720	5.860	17.340	 H	1	UNK0	0.000	
10	 H13	10.620	-3.230	16.470	 H	1	UNK0	0.000	
11	 H16	6.020	5.510	15.100	 H	1	UNK0	0.000	
12	 H15	9.560	-4.610	16.830	 H	1	UNK0	0.000	
13	 H26	5.240	7.370	15.100	 H	1	UNK0	0.000	
14	 H14	10.570	-3.950	18.130	 H	1	UNK0	0.000	
15	 H07	7.340	-1.050	18.450	 H	1	UNK0	0.000	
16	 H12	11.420	2.340	19.580	 H	1	UNK0	0.000	
17	 H22	5.670	8.760	18.800	 H	1	UNK0	0.000	
18	 H19	7.430	6.430	18.040	 H	1	UNK0	0.000	
19	 H25	4.080	7.720	16.420	 H	1	UNK0	0.000	
20	 H24	5.470	9.710	16.620	 H	1	UNK0	0.000	
21	 H23	6.890	8.820	16.050	 H	1	UNK0	0.000	
22	 H34	2.760	-1.910	12.930	 H	1	UNK0	0.000	
23	 H29	4.850	1.310	13.700	 H	1	UNK0	0.000	
24	 H28	2.840	0.490	15.680	 H	1	UNK0	0.000	
25	 H27	2.700	1.960	14.700	 H	1	UNK0	0.000	
26	 H30	4.460	-1.030	15.360	 H	1	UNK0	0.000	
27	 H33	5.720	-1.460	12.630	 H	1	UNK0	0.000	
28	 H32	4.910	-2.670	13.630	 H	1	UNK0	0.000	
29	 H31	5.970	-0.310	14.720	 H	1	UNK0	0.000	
30	 H17	7.310	5.370	16.290	 H	1	UNK0	0.000	
31	 H21	7.390	8.810	18.370	 H	1	UNK0	0.000	
32	 H37	2.210	0.360	13.140	 H	1	UNK0	0.000	
33	 H36	3.540	0.860	12.030	 H	1	UNK0	0.000	
34	 H20	5.980	6.430	19.090	 H	1	UNK0	0.000	
35	 H35	3.650	-1.480	11.470	 H	1	UNK0	0.000	
36	 H01	4.490	0.370	17.540	 H	1	UNK0	0.000	
37	 H02	7.040	3.760	18.210	 H	1	UNK0	0.000	
38	  C1	5.840	1.970	18.020	C.2	1	UNK0	0.000	
39	  C2	4.840	1.350	17.260	C.2	1	UNK0	0.000	
40	  C3	4.340	1.970	16.090	C.2	1	UNK0	0.000	
41	  C4	4.800	3.250	15.770	C.2	1	UNK0	0.000	
42	  C5	5.750	3.910	16.520	C.2	1	UNK0	0.000	
43	  C6	6.270	3.250	17.640	C.2	1	UNK0	0.000	
44	  O1	4.410	3.810	14.580	O.3	1	UNK0	0.000	
45	  N1	6.360	1.290	19.150	N.pl3	1	UNK0	0.000	
46	  C7	9.360	-1.620	18.150	C.2	1	UNK0	0.000	
47	  C8	10.720	-1.290	18.320	C.2	1	UNK0	0.000	
48	  C9	11.060	-0.060	18.860	C.2	1	UNK0	0.000	
49	 C10	10.070	0.860	19.250	C.2	1	UNK0	0.000	
50	 C11	8.690	0.510	19.140	C.2	1	UNK0	0.000	
51	 C12	8.370	-0.740	18.560	C.2	1	UNK0	0.000	
52	 C13	7.700	1.440	19.570	C.2	1	UNK0	0.000	
53	 C14	8.150	2.660	20.130	C.2	1	UNK0	0.000	
54	 C15	7.270	3.600	20.700	C.2	1	UNK0	0.000	
55	 C16	7.720	4.860	21.090	C.2	1	UNK0	0.000	
56	 C17	9.050	5.220	20.910	C.2	1	UNK0	0.000	
57	 C18	9.950	4.280	20.400	C.2	1	UNK0	0.000	
58	 C19	9.540	3.000	20.070	C.2	1	UNK0	0.000	
59	  N2	10.420	2.090	19.640	N.pl3	1	UNK0	0.000	
60	 C20	9.990	-3.690	17.240	C.3	1	UNK0	0.000	
61	  O2	8.910	-2.810	17.590	O.3	1	UNK0	0.000	
62	 C21	6.230	5.280	16.150	C.3	1	UNK0	0.000	
63	  N3	5.560	6.310	16.980	N.4	1	UNK0	0.000	
64	 C22	6.420	6.820	18.160	C.3	1	UNK0	0.000	
65	 C23	6.420	8.380	18.100	C.3	1	UNK0	0.000	
66	 C24	6.000	8.750	16.670	C.3	1	UNK0	0.000	
67	 C25	5.130	7.560	16.180	C.3	1	UNK0	0.000	
68	 C26	3.410	1.270	15.160	C.3	1	UNK0	0.000	
69	  N4	4.140	0.610	14.050	N.4	1	UNK0	0.000	
70	 C27	4.950	-0.620	14.480	C.3	1	UNK0	0.000	
71	 C28	4.870	-1.630	13.290	C.3	1	UNK0	0.000	
72	 C29	3.570	-1.290	12.550	C.3	1	UNK0	0.000	
73	 C30	3.260	0.200	12.860	C.3	1	UNK0	0.000	
@<TRIPOS>BOND
1 38 39 1
2 38 43 2
3 38 45 1
4 36 39 1
5 39 40 2
6 40 41 1
7 40 68 1
8 41 42 2
9 41 44 1
10 42 43 1
11 42 62 1
12 37 43 1
13 1 44 1
14 3 45 1
15 45 52 1
16 46 47 2
17 46 51 1
18 46 61 1
19 2 47 1
20 47 48 1
21 7 48 1
22 48 49 2
23 49 50 1
24 49 59 1
25 50 51 2
26 50 52 1
27 15 51 1
28 52 53 2
29 53 54 1
30 53 58 1
31 6 54 1
32 54 55 2
33 5 55 1
34 55 56 1
35 4 56 1
36 56 57 2
37 8 57 1
38 57 58 1
39 58 59 2
40 16 59 1
41 10 60 1
42 12 60 1
43 14 60 1
44 60 61 1
45 11 62 1
46 30 62 1
47 62 63 1
48 9 63 1
49 63 64 1
50 63 67 1
51 18 64 1
52 34 64 1
53 64 65 1
54 17 65 1
55 31 65 1
56 65 66 1
57 20 66 1
58 21 66 1
59 66 67 1
60 13 67 1
61 19 67 1
62 24 68 1
63 25 68 1
64 68 69 1
65 23 69 1
66 69 70 1
67 69 73 1
68 26 70 1
69 29 70 1
70 70 71 1
71 27 71 1
72 28 71 1
73 71 72 1
74 22 72 1
75 35 72 1
76 72 73 1
77 32 73 1
78 33 73 1
@<TRIPOS>SUBSTRUCTURE
1	UNK0	1	GROUP	1 ****	UNK
