# created with PyMOL 2.5.0
@<TRIPOS>MOLECULE
ZINC31490747
73 78 1                 
SMALL
USER_CHARGES
@<TRIPOS>ATOM
1	 H03	5.470	3.100	14.710	 H	1	UNK0	0.000	
2	 H05	11.470	-0.460	19.400	 H	1	UNK0	0.000	
3	 H04	4.400	-1.360	19.280	 H	1	UNK0	0.000	
4	 H10	4.660	-1.610	25.220	 H	1	UNK0	0.000	
5	 H09	2.970	-1.650	23.420	 H	1	UNK0	0.000	
6	 H08	3.630	-1.320	21.090	 H	1	UNK0	0.000	
7	 H06	10.580	-0.640	21.660	 H	1	UNK0	0.000	
8	 H11	7.000	-1.180	24.730	 H	1	UNK0	0.000	
9	 H18	4.970	4.870	16.810	 H	1	UNK0	0.000	
10	 H13	11.800	0.380	17.420	 H	1	UNK0	0.000	
11	 H16	7.020	3.830	16.420	 H	1	UNK0	0.000	
12	 H15	11.590	-0.500	15.900	 H	1	UNK0	0.000	
13	 H26	7.460	5.910	18.000	 H	1	UNK0	0.000	
14	 H14	11.770	-1.420	17.410	 H	1	UNK0	0.000	
15	 H07	7.520	-0.770	17.770	 H	1	UNK0	0.000	
16	 H12	8.670	-0.840	23.080	 H	1	UNK0	0.000	
17	 H22	4.110	6.600	19.990	 H	1	UNK0	0.000	
18	 H19	5.230	3.990	19.520	 H	1	UNK0	0.000	
19	 H25	6.520	6.560	16.600	 H	1	UNK0	0.000	
20	 H24	4.980	7.690	18.090	 H	1	UNK0	0.000	
21	 H23	6.430	7.820	19.100	 H	1	UNK0	0.000	
22	 H34	2.650	-2.080	12.090	 H	1	UNK0	0.000	
23	 H29	4.900	0.680	13.670	 H	1	UNK0	0.000	
24	 H28	2.430	0.030	15.120	 H	1	UNK0	0.000	
25	 H27	2.830	1.630	14.470	 H	1	UNK0	0.000	
26	 H30	3.930	-1.770	14.870	 H	1	UNK0	0.000	
27	 H33	5.630	-1.970	12.360	 H	1	UNK0	0.000	
28	 H32	4.540	-3.200	13.000	 H	1	UNK0	0.000	
29	 H31	5.610	-1.180	14.630	 H	1	UNK0	0.000	
30	 H17	7.230	3.620	18.170	 H	1	UNK0	0.000	
31	 H21	5.710	6.040	20.500	 H	1	UNK0	0.000	
32	 H37	2.280	0.160	12.620	 H	1	UNK0	0.000	
33	 H36	3.790	0.680	11.810	 H	1	UNK0	0.000	
34	 H20	3.800	4.640	18.650	 H	1	UNK0	0.000	
35	 H35	3.830	-1.550	10.890	 H	1	UNK0	0.000	
36	 H01	3.690	-0.920	17.030	 H	1	UNK0	0.000	
37	 H02	6.510	1.540	19.090	 H	1	UNK0	0.000	
38	  C1	5.080	0.210	18.200	C.2	1	UNK0	0.000	
39	  C2	4.230	0.020	17.110	C.2	1	UNK0	0.000	
40	  C3	4.080	0.990	16.110	C.2	1	UNK0	0.000	
41	  C4	4.810	2.180	16.230	C.2	1	UNK0	0.000	
42	  C5	5.690	2.400	17.290	C.2	1	UNK0	0.000	
43	  C6	5.820	1.400	18.260	C.2	1	UNK0	0.000	
44	  O1	4.640	3.150	15.280	O.3	1	UNK0	0.000	
45	  N1	5.260	-0.850	19.110	N.pl3	1	UNK0	0.000	
46	  C7	9.530	-0.590	18.440	C.2	1	UNK0	0.000	
47	  C8	10.400	-0.560	19.540	C.2	1	UNK0	0.000	
48	  C9	9.880	-0.650	20.840	C.2	1	UNK0	0.000	
49	 C10	8.500	-0.770	21.050	C.2	1	UNK0	0.000	
50	 C11	7.610	-0.790	19.940	C.2	1	UNK0	0.000	
51	 C12	8.160	-0.710	18.640	C.2	1	UNK0	0.000	
52	 C13	6.200	-0.940	20.160	C.2	1	UNK0	0.000	
53	 C14	5.760	-1.090	21.510	C.2	1	UNK0	0.000	
54	 C15	4.410	-1.290	21.840	C.2	1	UNK0	0.000	
55	 C16	4.020	-1.470	23.170	C.2	1	UNK0	0.000	
56	 C17	4.960	-1.440	24.190	C.2	1	UNK0	0.000	
57	 C18	6.300	-1.190	23.900	C.2	1	UNK0	0.000	
58	 C19	6.720	-1.040	22.570	C.2	1	UNK0	0.000	
59	  N2	8.020	-0.870	22.300	N.pl3	1	UNK0	0.000	
60	 C20	11.350	-0.510	16.970	C.3	1	UNK0	0.000	
61	  O2	9.930	-0.490	17.110	O.3	1	UNK0	0.000	
62	 C21	6.500	3.660	17.360	C.3	1	UNK0	0.000	
63	  N3	5.650	4.860	17.600	N.4	1	UNK0	0.000	
64	 C22	4.860	4.810	18.920	C.3	1	UNK0	0.000	
65	 C23	5.050	6.190	19.630	C.3	1	UNK0	0.000	
66	 C24	5.750	7.110	18.620	C.3	1	UNK0	0.000	
67	 C25	6.450	6.170	17.610	C.3	1	UNK0	0.000	
68	 C26	3.260	0.710	14.890	C.3	1	UNK0	0.000	
69	  N4	4.050	0.070	13.830	N.4	1	UNK0	0.000	
70	 C27	4.630	-1.310	14.170	C.3	1	UNK0	0.000	
71	 C28	4.670	-2.120	12.840	C.3	1	UNK0	0.000	
72	 C29	3.560	-1.520	11.960	C.3	1	UNK0	0.000	
73	 C30	3.340	-0.060	12.470	C.3	1	UNK0	0.000	
@<TRIPOS>BOND
1 38 39 1
2 38 43 2
3 38 45 1
4 36 39 1
5 39 40 2
6 40 41 1
7 40 68 1
8 41 42 2
9 41 44 1
10 42 43 1
11 42 62 1
12 37 43 1
13 1 44 1
14 3 45 1
15 45 52 1
16 46 47 2
17 46 51 1
18 46 61 1
19 2 47 1
20 47 48 1
21 7 48 1
22 48 49 2
23 49 50 1
24 49 59 1
25 50 51 2
26 50 52 1
27 15 51 1
28 52 53 2
29 53 54 1
30 53 58 1
31 6 54 1
32 54 55 2
33 5 55 1
34 55 56 1
35 4 56 1
36 56 57 2
37 8 57 1
38 57 58 1
39 58 59 2
40 16 59 1
41 10 60 1
42 12 60 1
43 14 60 1
44 60 61 1
45 11 62 1
46 30 62 1
47 62 63 1
48 9 63 1
49 63 64 1
50 63 67 1
51 18 64 1
52 34 64 1
53 64 65 1
54 17 65 1
55 31 65 1
56 65 66 1
57 20 66 1
58 21 66 1
59 66 67 1
60 13 67 1
61 19 67 1
62 24 68 1
63 25 68 1
64 68 69 1
65 23 69 1
66 69 70 1
67 69 73 1
68 26 70 1
69 29 70 1
70 70 71 1
71 27 71 1
72 28 71 1
73 71 72 1
74 22 72 1
75 35 72 1
76 72 73 1
77 32 73 1
78 33 73 1
@<TRIPOS>SUBSTRUCTURE
1	UNK0	1	GROUP	1 ****	UNK
