# created with PyMOL 2.5.0
@<TRIPOS>MOLECULE
cocrystal/docking_cocrystal/1jsv_U55_LIG.pdb
29 30 1                 
SMALL
USER_CHARGES
@<TRIPOS>ATOM
1	 H07	-13.640	206.210	109.600	 H	1	UNK0	0.000	
2	 H09	-18.200	207.010	111.890	 H	1	UNK0	0.000	
3	 H06	-6.870	208.860	111.130	 H	1	UNK0	0.000	
4	 H02	-9.190	207.370	109.750	 H	1	UNK0	0.000	
5	 H01	-11.520	206.880	109.010	 H	1	UNK0	0.000	
6	 H11	-15.960	207.050	110.800	 H	1	UNK0	0.000	
7	 H04	-10.360	206.560	113.840	 H	1	UNK0	0.000	
8	 H03	-12.680	206.150	113.110	 H	1	UNK0	0.000	
9	 H10	-15.150	202.740	112.960	 H	1	UNK0	0.000	
10	 H05	-7.370	207.470	110.400	 H	1	UNK0	0.000	
11	 H08	-18.680	205.700	112.950	 H	1	UNK0	0.000	
12	  C1	-12.250	206.380	110.990	C.2	1	UNK0	0.000	
13	  C2	-11.260	206.790	110.060	C.2	1	UNK0	0.000	
14	  C3	-9.950	207.080	110.480	C.2	1	UNK0	0.000	
15	  C4	-11.910	206.370	112.360	C.2	1	UNK0	0.000	
16	  C5	-10.610	206.640	112.780	C.2	1	UNK0	0.000	
17	  C6	-9.620	206.990	111.860	C.2	1	UNK0	0.000	
18	  S1	-8.120	207.660	112.410	S.o2	1	UNK0	0.000	
19	  O1	-7.600	206.850	113.460	O.2	1	UNK0	0.000	
20	  O2	-8.450	209.010	112.970	O.2	1	UNK0	0.000	
21	  N1	-7.030	207.870	111.260	N.3	1	UNK0	0.000	
22	  N2	-13.470	206.040	110.580	N.pl3	1	UNK0	0.000	
23	  N3	-17.990	206.140	112.360	N.pl3	1	UNK0	0.000	
24	  C7	-16.750	205.560	112.190	C.2	1	UNK0	0.000	
25	  N4	-16.510	204.380	112.820	N.2	1	UNK0	0.000	
26	  C8	-15.300	203.750	112.560	C.2	1	UNK0	0.000	
27	  N5	-14.290	204.300	111.860	N.2	1	UNK0	0.000	
28	  C9	-15.750	206.130	111.350	C.2	1	UNK0	0.000	
29	 C10	-14.500	205.520	111.230	C.2	1	UNK0	0.000	
@<TRIPOS>BOND
1 12 13 2
2 12 15 1
3 12 22 1
4 5 13 1
5 13 14 1
6 4 14 1
7 14 17 2
8 8 15 1
9 15 16 2
10 7 16 1
11 16 17 1
12 17 18 1
13 18 19 2
14 18 20 2
15 18 21 1
16 3 21 1
17 10 21 1
18 1 22 1
19 22 29 1
20 2 23 1
21 11 23 1
22 23 24 1
23 24 25 1
24 24 28 2
25 25 26 2
26 9 26 1
27 26 27 1
28 27 29 2
29 6 28 1
30 28 29 1
@<TRIPOS>SUBSTRUCTURE
1	UNK0	1	GROUP	1 ****	UNK
