# created with PyMOL 2.5.0
@<TRIPOS>MOLECULE
cocrystal/docking_cocrystal/1jsv_U55_LIG.pdb
18 19 1                 
SMALL
USER_CHARGES
@<TRIPOS>ATOM
1	  C1	-12.327	206.213	111.200	C.2	1	UNK0	0.000	
2	  C2	-11.363	206.672	110.265	C.2	1	UNK0	0.000	
3	  C3	-10.049	206.969	110.668	C.2	1	UNK0	0.000	
4	  C4	-11.958	206.162	112.562	C.2	1	UNK0	0.000	
5	  C5	-10.654	206.439	112.964	C.2	1	UNK0	0.000	
6	  C6	-9.689	206.837	112.037	C.2	1	UNK0	0.000	
7	  S1	-8.189	207.512	112.579	S.o2	1	UNK0	0.000	
8	  O1	-7.634	206.676	113.589	O.2	1	UNK0	0.000	
9	  O2	-8.528	208.837	113.192	O.2	1	UNK0	0.000	
10	  N1	-7.127	207.780	111.415	N.3	1	UNK0	0.000	
11	  N2	-13.550	205.867	110.804	N.pl3	1	UNK0	0.000	
12	  N3	-18.032	205.831	112.678	N.pl3	1	UNK0	0.000	
13	  C7	-16.787	205.278	112.463	C.2	1	UNK0	0.000	
14	  N4	-16.515	204.081	113.046	N.2	1	UNK0	0.000	
15	  C8	-15.301	203.480	112.740	C.2	1	UNK0	0.000	
16	  N5	-14.315	204.071	112.039	N.2	1	UNK0	0.000	
17	  C9	-15.814	205.893	111.623	C.2	1	UNK0	0.000	
18	 C10	-14.557	205.308	111.456	C.2	1	UNK0	0.000	
@<TRIPOS>BOND
1 1 2 2
2 1 4 1
3 1 11 1
4 2 3 1
5 3 6 2
6 4 5 2
7 5 6 1
8 6 7 1
9 7 8 2
10 7 9 2
11 7 10 1
12 11 18 1
13 12 13 1
14 13 14 1
15 13 17 2
16 14 15 2
17 15 16 1
18 16 18 2
19 17 18 1
@<TRIPOS>SUBSTRUCTURE
1	UNK0	1	GROUP	1 ****	UNK
