# created with PyMOL 2.5.0
@<TRIPOS>MOLECULE
cocrystal/docking_cocrystal/1jsv_U55_LIG.pdb
18 19 1                 
SMALL
USER_CHARGES
@<TRIPOS>ATOM
1	  C1	-10.337	206.568	112.495	C.2	1	UNK0	0.000	
2	  C2	-9.230	207.020	111.772	C.2	1	UNK0	0.000	
3	  C3	-8.084	207.478	112.403	C.2	1	UNK0	0.000	
4	  C4	-10.292	206.650	113.905	C.2	1	UNK0	0.000	
5	  C5	-9.154	207.106	114.566	C.2	1	UNK0	0.000	
6	  C6	-8.041	207.510	113.809	C.2	1	UNK0	0.000	
7	  S1	-6.461	207.837	114.623	S.o2	1	UNK0	0.000	
8	  O1	-5.449	207.155	113.826	O.2	1	UNK0	0.000	
9	  O2	-6.595	207.654	116.050	O.2	1	UNK0	0.000	
10	  N1	-6.282	209.433	114.398	N.3	1	UNK0	0.000	
11	  N2	-11.437	206.116	111.762	N.pl3	1	UNK0	0.000	
12	  N3	-15.361	205.851	114.543	N.pl3	1	UNK0	0.000	
13	  C7	-14.592	205.428	113.495	C.2	1	UNK0	0.000	
14	  N4	-15.101	204.463	112.728	N.2	1	UNK0	0.000	
15	  C8	-14.330	204.090	111.684	C.2	1	UNK0	0.000	
16	  N5	-13.113	204.597	111.362	N.2	1	UNK0	0.000	
17	  C9	-13.367	206.027	113.280	C.2	1	UNK0	0.000	
18	 C10	-12.651	205.571	112.171	C.2	1	UNK0	0.000	
@<TRIPOS>BOND
1 1 2 2
2 1 4 1
3 1 11 1
4 2 3 1
5 3 6 2
6 4 5 2
7 5 6 1
8 6 7 1
9 7 8 2
10 7 9 2
11 7 10 1
12 11 18 1
13 12 13 1
14 13 14 1
15 13 17 2
16 14 15 2
17 15 16 1
18 16 18 2
19 17 18 1
@<TRIPOS>SUBSTRUCTURE
1	UNK0	1	GROUP	1 ****	UNK
