# created with PyMOL 2.5.0
@<TRIPOS>MOLECULE
cocrystal/docking_cocrystal/1jsv_U55_LIG.pdb
29 30 1                 
SMALL
USER_CHARGES
@<TRIPOS>ATOM
1	 H07	-13.350	206.410	110.910	 H	1	UNK0	0.000	
2	 H09	-15.280	205.430	116.360	 H	1	UNK0	0.000	
3	 H06	-7.920	209.270	113.260	 H	1	UNK0	0.000	
4	 H02	-8.680	206.270	111.280	 H	1	UNK0	0.000	
5	 H01	-10.990	205.890	110.550	 H	1	UNK0	0.000	
6	 H11	-13.490	205.530	114.510	 H	1	UNK0	0.000	
7	 H04	-10.160	207.800	115.060	 H	1	UNK0	0.000	
8	 H03	-12.460	207.420	114.280	 H	1	UNK0	0.000	
9	 H10	-17.520	205.770	111.820	 H	1	UNK0	0.000	
10	 H05	-6.480	208.590	112.680	 H	1	UNK0	0.000	
11	 H08	-16.700	204.650	115.950	 H	1	UNK0	0.000	
12	  C1	-11.890	206.630	112.350	C.2	1	UNK0	0.000	
13	  C2	-10.810	206.340	111.520	C.2	1	UNK0	0.000	
14	  C3	-9.500	206.560	111.930	C.2	1	UNK0	0.000	
15	  C4	-11.640	207.170	113.620	C.2	1	UNK0	0.000	
16	  C5	-10.330	207.410	114.060	C.2	1	UNK0	0.000	
17	  C6	-9.260	207.110	113.210	C.2	1	UNK0	0.000	
18	  S1	-7.570	207.170	113.830	S.o2	1	UNK0	0.000	
19	  O1	-6.770	206.320	112.990	O.2	1	UNK0	0.000	
20	  O2	-7.640	207.040	115.270	O.2	1	UNK0	0.000	
21	  N1	-7.120	208.690	113.470	N.3	1	UNK0	0.000	
22	  N2	-13.170	206.270	111.900	N.pl3	1	UNK0	0.000	
23	  N3	-15.700	204.790	115.700	N.pl3	1	UNK0	0.000	
24	  C7	-15.620	205.310	114.440	C.2	1	UNK0	0.000	
25	  N4	-16.750	205.310	113.710	N.2	1	UNK0	0.000	
26	  C8	-16.610	205.720	112.420	C.2	1	UNK0	0.000	
27	  N5	-15.450	206.070	111.820	N.2	1	UNK0	0.000	
28	  C9	-14.390	205.640	113.920	C.2	1	UNK0	0.000	
29	 C10	-14.350	206.020	112.580	C.2	1	UNK0	0.000	
@<TRIPOS>BOND
1 12 13 2
2 12 15 1
3 12 22 1
4 5 13 1
5 13 14 1
6 4 14 1
7 14 17 2
8 8 15 1
9 15 16 2
10 7 16 1
11 16 17 1
12 17 18 1
13 18 19 2
14 18 20 2
15 18 21 1
16 3 21 1
17 10 21 1
18 1 22 1
19 22 29 1
20 2 23 1
21 11 23 1
22 23 24 1
23 24 25 1
24 24 28 2
25 25 26 2
26 9 26 1
27 26 27 1
28 27 29 2
29 6 28 1
30 28 29 1
@<TRIPOS>SUBSTRUCTURE
1	UNK0	1	GROUP	1 ****	UNK
