# created with PyMOL 2.5.0
@<TRIPOS>MOLECULE
cocrystal/docking_cocrystal/1jsv_U55_LIG.pdb
18 19 1                 
SMALL
USER_CHARGES
@<TRIPOS>ATOM
1	  C1	-12.750	206.460	111.826	C.2	1	UNK0	0.000	
2	  C2	-11.714	206.197	110.934	C.2	1	UNK0	0.000	
3	  C3	-10.382	206.352	111.302	C.2	1	UNK0	0.000	
4	  C4	-12.433	206.906	113.117	C.2	1	UNK0	0.000	
5	  C5	-11.099	207.079	113.517	C.2	1	UNK0	0.000	
6	  C6	-10.074	206.807	112.604	C.2	1	UNK0	0.000	
7	  S1	-8.359	206.778	113.155	S.o2	1	UNK0	0.000	
8	  O1	-7.620	205.965	112.227	O.2	1	UNK0	0.000	
9	  O2	-8.375	206.553	114.585	O.2	1	UNK0	0.000	
10	  N1	-7.878	208.306	112.877	N.3	1	UNK0	0.000	
11	  N2	-14.058	206.168	111.408	N.pl3	1	UNK0	0.000	
12	  N3	-16.477	204.506	115.205	N.pl3	1	UNK0	0.000	
13	  C7	-16.432	205.108	113.980	C.2	1	UNK0	0.000	
14	  N4	-17.590	205.189	113.300	N.2	1	UNK0	0.000	
15	  C8	-17.489	205.681	112.035	C.2	1	UNK0	0.000	
16	  N5	-16.344	206.038	111.411	N.2	1	UNK0	0.000	
17	  C9	-15.214	205.437	113.431	C.2	1	UNK0	0.000	
18	 C10	-15.216	205.906	112.119	C.2	1	UNK0	0.000	
@<TRIPOS>BOND
1 1 2 2
2 1 4 1
3 1 11 1
4 2 3 1
5 3 6 2
6 4 5 2
7 5 6 1
8 6 7 1
9 7 8 2
10 7 9 2
11 7 10 1
12 11 18 1
13 12 13 1
14 13 14 1
15 13 17 2
16 14 15 2
17 15 16 1
18 16 18 2
19 17 18 1
@<TRIPOS>SUBSTRUCTURE
1	UNK0	1	GROUP	1 ****	UNK
