# created with PyMOL 2.5.0
@<TRIPOS>MOLECULE
cocrystal/docking_cocrystal/1jsv_U55_LIG.pdb
29 30 1                 
SMALL
USER_CHARGES
@<TRIPOS>ATOM
1	 H07	-14.190	206.620	111.040	 H	1	UNK0	0.000	
2	 H09	-18.770	205.530	111.820	 H	1	UNK0	0.000	
3	 H06	-7.390	209.830	111.490	 H	1	UNK0	0.000	
4	 H02	-9.910	207.870	110.320	 H	1	UNK0	0.000	
5	 H01	-12.280	207.320	110.090	 H	1	UNK0	0.000	
6	 H11	-16.520	206.680	111.260	 H	1	UNK0	0.000	
7	 H04	-10.340	207.840	114.640	 H	1	UNK0	0.000	
8	 H03	-12.720	207.320	114.370	 H	1	UNK0	0.000	
9	 H10	-15.690	205.440	115.880	 H	1	UNK0	0.000	
10	 H05	-7.710	210.260	113.090	 H	1	UNK0	0.000	
11	 H08	-19.290	205.660	113.400	 H	1	UNK0	0.000	
12	  C1	-12.670	207.220	112.210	C.2	1	UNK0	0.000	
13	  C2	-11.860	207.420	111.090	C.2	1	UNK0	0.000	
14	  C3	-10.510	207.750	111.220	C.2	1	UNK0	0.000	
15	  C4	-12.110	207.410	113.480	C.2	1	UNK0	0.000	
16	  C5	-10.760	207.730	113.640	C.2	1	UNK0	0.000	
17	  C6	-9.960	207.930	112.500	C.2	1	UNK0	0.000	
18	  S1	-8.200	208.310	112.690	S.o2	1	UNK0	0.000	
19	  O1	-7.420	207.610	111.690	O.2	1	UNK0	0.000	
20	  O2	-7.830	208.350	114.080	O.2	1	UNK0	0.000	
21	  N1	-8.090	209.840	112.240	N.3	1	UNK0	0.000	
22	  N2	-14.040	206.970	111.980	N.pl3	1	UNK0	0.000	
23	  N3	-18.650	206.040	112.680	N.pl3	1	UNK0	0.000	
24	  C7	-17.350	205.980	113.110	C.2	1	UNK0	0.000	
25	  N4	-17.160	205.650	114.390	N.2	1	UNK0	0.000	
26	  C8	-15.870	205.710	114.840	C.2	1	UNK0	0.000	
27	  N5	-14.800	206.090	114.100	N.2	1	UNK0	0.000	
28	  C9	-16.320	206.380	112.270	C.2	1	UNK0	0.000	
29	 C10	-15.040	206.440	112.820	C.2	1	UNK0	0.000	
@<TRIPOS>BOND
1 12 13 2
2 12 15 1
3 12 22 1
4 5 13 1
5 13 14 1
6 4 14 1
7 14 17 2
8 8 15 1
9 15 16 2
10 7 16 1
11 16 17 1
12 17 18 1
13 18 19 2
14 18 20 2
15 18 21 1
16 3 21 1
17 10 21 1
18 1 22 1
19 22 29 1
20 2 23 1
21 11 23 1
22 23 24 1
23 24 25 1
24 24 28 2
25 25 26 2
26 9 26 1
27 26 27 1
28 27 29 2
29 6 28 1
30 28 29 1
@<TRIPOS>SUBSTRUCTURE
1	UNK0	1	GROUP	1 ****	UNK
