# created with PyMOL 2.5.0
@<TRIPOS>MOLECULE
cocrystal/docking_cocrystal/1jsv_U55_LIG.pdb
29 30 1                 
SMALL
USER_CHARGES
@<TRIPOS>ATOM
1	 H07	-10.350	206.350	110.600	 H	1	UNK0	0.000	
2	 H09	-14.500	207.090	113.110	 H	1	UNK0	0.000	
3	 H06	-4.130	205.970	114.660	 H	1	UNK0	0.000	
4	 H02	-6.210	207.830	112.070	 H	1	UNK0	0.000	
5	 H01	-8.130	207.120	110.660	 H	1	UNK0	0.000	
6	 H11	-12.410	207.130	111.610	 H	1	UNK0	0.000	
7	 H04	-8.110	206.020	115.510	 H	1	UNK0	0.000	
8	 H03	-10.000	205.340	114.070	 H	1	UNK0	0.000	
9	 H10	-12.850	202.450	112.830	 H	1	UNK0	0.000	
10	 H05	-3.910	207.500	113.940	 H	1	UNK0	0.000	
11	 H08	-15.520	205.830	112.880	 H	1	UNK0	0.000	
12	  C1	-9.200	206.200	112.270	C.2	1	UNK0	0.000	
13	  C2	-8.120	206.890	111.720	C.2	1	UNK0	0.000	
14	  C3	-7.030	207.280	112.510	C.2	1	UNK0	0.000	
15	  C4	-9.180	205.890	113.630	C.2	1	UNK0	0.000	
16	  C5	-8.100	206.260	114.450	C.2	1	UNK0	0.000	
17	  C6	-7.020	206.950	113.870	C.2	1	UNK0	0.000	
18	  S1	-5.520	207.220	114.850	S.o2	1	UNK0	0.000	
19	  O1	-5.310	206.230	115.890	O.2	1	UNK0	0.000	
20	  O2	-5.000	208.560	114.810	O.2	1	UNK0	0.000	
21	  N1	-4.420	206.600	113.900	N.3	1	UNK0	0.000	
22	  N2	-10.200	205.730	111.400	N.pl3	1	UNK0	0.000	
23	  N3	-14.760	206.390	112.430	N.pl3	1	UNK0	0.000	
24	  C7	-13.690	205.550	112.310	C.2	1	UNK0	0.000	
25	  N4	-13.870	204.260	112.630	N.2	1	UNK0	0.000	
26	  C8	-12.750	203.500	112.560	C.2	1	UNK0	0.000	
27	  N5	-11.520	203.910	112.180	N.2	1	UNK0	0.000	
28	  C9	-12.500	206.090	111.870	C.2	1	UNK0	0.000	
29	 C10	-11.420	205.220	111.810	C.2	1	UNK0	0.000	
@<TRIPOS>BOND
1 12 13 2
2 12 15 1
3 12 22 1
4 5 13 1
5 13 14 1
6 4 14 1
7 14 17 2
8 8 15 1
9 15 16 2
10 7 16 1
11 16 17 1
12 17 18 1
13 18 19 2
14 18 20 2
15 18 21 1
16 3 21 1
17 10 21 1
18 1 22 1
19 22 29 1
20 2 23 1
21 11 23 1
22 23 24 1
23 24 25 1
24 24 28 2
25 25 26 2
26 9 26 1
27 26 27 1
28 27 29 2
29 6 28 1
30 28 29 1
@<TRIPOS>SUBSTRUCTURE
1	UNK0	1	GROUP	1 ****	UNK
