# created with PyMOL 2.5.0
@<TRIPOS>MOLECULE
cocrystal/docking_cocrystal/1jsv_U55_LIG.pdb
29 30 1                 
SMALL
USER_CHARGES
@<TRIPOS>ATOM
1	 H07	-11.570	206.120	110.060	 H	1	UNK0	0.000	
2	 H09	-16.160	205.720	111.450	 H	1	UNK0	0.000	
3	 H06	-4.220	208.170	109.960	 H	1	UNK0	0.000	
4	 H02	-7.160	206.400	109.050	 H	1	UNK0	0.000	
5	 H01	-9.610	206.220	109.000	 H	1	UNK0	0.000	
6	 H11	-13.830	206.680	110.380	 H	1	UNK0	0.000	
7	 H04	-7.340	207.110	113.320	 H	1	UNK0	0.000	
8	 H03	-9.780	207.010	113.210	 H	1	UNK0	0.000	
9	 H10	-12.950	206.040	115.110	 H	1	UNK0	0.000	
10	 H05	-5.560	207.620	109.240	 H	1	UNK0	0.000	
11	 H08	-16.360	206.380	112.950	 H	1	UNK0	0.000	
12	  C1	-9.880	206.530	111.100	C.2	1	UNK0	0.000	
13	  C2	-9.110	206.400	109.940	C.2	1	UNK0	0.000	
14	  C3	-7.720	206.490	109.980	C.2	1	UNK0	0.000	
15	  C4	-9.210	206.830	112.300	C.2	1	UNK0	0.000	
16	  C5	-7.820	206.900	112.370	C.2	1	UNK0	0.000	
17	  C6	-7.060	206.730	111.190	C.2	1	UNK0	0.000	
18	  S1	-5.250	206.850	111.290	S.o2	1	UNK0	0.000	
19	  O1	-4.690	205.520	111.480	O.2	1	UNK0	0.000	
20	  O2	-4.870	207.970	112.110	O.2	1	UNK0	0.000	
21	  N1	-4.760	207.310	109.810	N.3	1	UNK0	0.000	
22	  N2	-11.280	206.490	110.950	N.pl3	1	UNK0	0.000	
23	  N3	-15.940	206.530	112.020	N.pl3	1	UNK0	0.000	
24	  C7	-14.620	206.450	112.360	C.2	1	UNK0	0.000	
25	  N4	-14.430	206.290	113.660	N.2	1	UNK0	0.000	
26	  C8	-13.130	206.160	114.050	C.2	1	UNK0	0.000	
27	  N5	-12.060	206.170	113.220	N.2	1	UNK0	0.000	
28	  C9	-13.610	206.510	111.420	C.2	1	UNK0	0.000	
29	 C10	-12.300	206.370	111.900	C.2	1	UNK0	0.000	
@<TRIPOS>BOND
1 12 13 2
2 12 15 1
3 12 22 1
4 5 13 1
5 13 14 1
6 4 14 1
7 14 17 2
8 8 15 1
9 15 16 2
10 7 16 1
11 16 17 1
12 17 18 1
13 18 19 2
14 18 20 2
15 18 21 1
16 3 21 1
17 10 21 1
18 1 22 1
19 22 29 1
20 2 23 1
21 11 23 1
22 23 24 1
23 24 25 1
24 24 28 2
25 25 26 2
26 9 26 1
27 26 27 1
28 27 29 2
29 6 28 1
30 28 29 1
@<TRIPOS>SUBSTRUCTURE
1	UNK0	1	GROUP	1 ****	UNK
