# created with PyMOL 2.5.0
@<TRIPOS>MOLECULE
cocrystal/docking_cocrystal/1jsv_U55_LIG.pdb
18 19 1                 
SMALL
USER_CHARGES
@<TRIPOS>ATOM
1	  C1	-9.676	205.976	111.673	C.2	1	UNK0	0.000	
2	  C2	-8.648	206.700	111.069	C.2	1	UNK0	0.000	
3	  C3	-7.520	207.104	111.796	C.2	1	UNK0	0.000	
4	  C4	-9.564	205.647	113.024	C.2	1	UNK0	0.000	
5	  C5	-8.444	206.030	113.782	C.2	1	UNK0	0.000	
6	  C6	-7.418	206.754	113.147	C.2	1	UNK0	0.000	
7	  S1	-5.866	207.045	114.037	S.o2	1	UNK0	0.000	
8	  O1	-5.570	206.045	115.046	O.2	1	UNK0	0.000	
9	  O2	-5.380	208.397	113.986	O.2	1	UNK0	0.000	
10	  N1	-4.814	206.465	113.011	N.3	1	UNK0	0.000	
11	  N2	-10.717	205.496	110.859	N.pl3	1	UNK0	0.000	
12	  N3	-15.218	206.033	112.180	N.pl3	1	UNK0	0.000	
13	  C7	-14.139	205.220	111.980	C.2	1	UNK0	0.000	
14	  N4	-14.269	203.922	112.290	N.2	1	UNK0	0.000	
15	  C8	-13.139	203.189	112.139	C.2	1	UNK0	0.000	
16	  N5	-11.944	203.634	111.690	N.2	1	UNK0	0.000	
17	  C9	-12.991	205.794	111.476	C.2	1	UNK0	0.000	
18	 C10	-11.897	204.951	111.336	C.2	1	UNK0	0.000	
@<TRIPOS>BOND
1 1 2 2
2 1 4 1
3 1 11 1
4 2 3 1
5 3 6 2
6 4 5 2
7 5 6 1
8 6 7 1
9 7 8 2
10 7 9 2
11 7 10 1
12 11 18 1
13 12 13 1
14 13 14 1
15 13 17 2
16 14 15 2
17 15 16 1
18 16 18 2
19 17 18 1
@<TRIPOS>SUBSTRUCTURE
1	UNK0	1	GROUP	1 ****	UNK
