# created with PyMOL 2.5.0
@<TRIPOS>MOLECULE
cocrystal/docking_cocrystal/1jsv_U55_LIG.pdb
29 30 1                 
SMALL
USER_CHARGES
@<TRIPOS>ATOM
1	 H07	-13.080	206.670	110.150	 H	1	UNK0	0.000	
2	 H09	-18.180	206.250	112.400	 H	1	UNK0	0.000	
3	 H06	-6.040	209.270	111.260	 H	1	UNK0	0.000	
4	 H02	-8.630	207.320	109.470	 H	1	UNK0	0.000	
5	 H01	-11.040	206.890	109.220	 H	1	UNK0	0.000	
6	 H11	-15.270	205.970	110.260	 H	1	UNK0	0.000	
7	 H04	-9.100	207.140	113.780	 H	1	UNK0	0.000	
8	 H03	-11.460	206.630	113.490	 H	1	UNK0	0.000	
9	 H10	-14.880	206.420	115.070	 H	1	UNK0	0.000	
10	 H05	-7.110	208.770	110.100	 H	1	UNK0	0.000	
11	 H08	-17.720	206.450	110.810	 H	1	UNK0	0.000	
12	  C1	-11.450	206.750	111.330	C.2	1	UNK0	0.000	
13	  C2	-10.610	206.950	110.220	C.2	1	UNK0	0.000	
14	  C3	-9.240	207.200	110.360	C.2	1	UNK0	0.000	
15	  C4	-10.860	206.800	112.600	C.2	1	UNK0	0.000	
16	  C5	-9.510	207.080	112.770	C.2	1	UNK0	0.000	
17	  C6	-8.690	207.260	111.650	C.2	1	UNK0	0.000	
18	  S1	-6.900	207.480	111.920	S.o2	1	UNK0	0.000	
19	  O1	-6.220	206.220	111.700	O.2	1	UNK0	0.000	
20	  O2	-6.710	208.260	113.120	O.2	1	UNK0	0.000	
21	  N1	-6.370	208.440	110.720	N.3	1	UNK0	0.000	
22	  N2	-12.800	206.380	111.080	N.pl3	1	UNK0	0.000	
23	  N3	-17.540	205.940	111.670	N.pl3	1	UNK0	0.000	
24	  C7	-16.280	206.160	112.140	C.2	1	UNK0	0.000	
25	  N4	-16.230	206.270	113.460	N.2	1	UNK0	0.000	
26	  C8	-14.970	206.360	113.990	C.2	1	UNK0	0.000	
27	  N5	-13.820	206.410	113.270	N.2	1	UNK0	0.000	
28	  C9	-15.160	206.120	111.320	C.2	1	UNK0	0.000	
29	 C10	-13.920	206.320	111.930	C.2	1	UNK0	0.000	
@<TRIPOS>BOND
1 12 13 2
2 12 15 1
3 12 22 1
4 5 13 1
5 13 14 1
6 4 14 1
7 14 17 2
8 8 15 1
9 15 16 2
10 7 16 1
11 16 17 1
12 17 18 1
13 18 19 2
14 18 20 2
15 18 21 1
16 3 21 1
17 10 21 1
18 1 22 1
19 22 29 1
20 2 23 1
21 11 23 1
22 23 24 1
23 24 25 1
24 24 28 2
25 25 26 2
26 9 26 1
27 26 27 1
28 27 29 2
29 6 28 1
30 28 29 1
@<TRIPOS>SUBSTRUCTURE
1	UNK0	1	GROUP	1 ****	UNK
