# created with PyMOL 2.5.0
@<TRIPOS>MOLECULE
cocrystal/docking_cocrystal/1jsv_U55_LIG.pdb
18 19 1                 
SMALL
USER_CHARGES
@<TRIPOS>ATOM
1	  C1	-12.787	206.561	111.861	C.2	1	UNK0	0.000	
2	  C2	-12.010	206.794	110.724	C.2	1	UNK0	0.000	
3	  C3	-10.655	207.110	110.823	C.2	1	UNK0	0.000	
4	  C4	-12.187	206.703	113.119	C.2	1	UNK0	0.000	
5	  C5	-10.830	207.008	113.247	C.2	1	UNK0	0.000	
6	  C6	-10.064	207.242	112.091	C.2	1	UNK0	0.000	
7	  S1	-8.296	207.604	112.239	S.o2	1	UNK0	0.000	
8	  O1	-7.553	206.933	111.191	O.2	1	UNK0	0.000	
9	  O2	-7.883	207.593	113.617	O.2	1	UNK0	0.000	
10	  N1	-8.188	209.147	111.838	N.3	1	UNK0	0.000	
11	  N2	-14.165	206.328	111.665	N.pl3	1	UNK0	0.000	
12	  N3	-18.759	205.405	112.476	N.pl3	1	UNK0	0.000	
13	  C7	-17.446	205.322	112.863	C.2	1	UNK0	0.000	
14	  N4	-17.220	204.947	114.125	N.2	1	UNK0	0.000	
15	  C8	-15.916	204.983	114.536	C.2	1	UNK0	0.000	
16	  N5	-14.866	205.381	113.777	N.2	1	UNK0	0.000	
17	  C9	-16.440	205.744	112.006	C.2	1	UNK0	0.000	
18	 C10	-15.143	205.776	112.517	C.2	1	UNK0	0.000	
@<TRIPOS>BOND
1 1 2 2
2 1 4 1
3 1 11 1
4 2 3 1
5 3 6 2
6 4 5 2
7 5 6 1
8 6 7 1
9 7 8 2
10 7 9 2
11 7 10 1
12 11 18 1
13 12 13 1
14 13 14 1
15 13 17 2
16 14 15 2
17 15 16 1
18 16 18 2
19 17 18 1
@<TRIPOS>SUBSTRUCTURE
1	UNK0	1	GROUP	1 ****	UNK
