# created with PyMOL 2.5.0
@<TRIPOS>MOLECULE
cocrystal/docking_cocrystal/1jsv_U55_LIG.pdb
29 30 1                 
SMALL
USER_CHARGES
@<TRIPOS>ATOM
1	 H07	-13.020	207.250	109.930	 H	1	UNK0	0.000	
2	 H09	-18.140	207.610	109.660	 H	1	UNK0	0.000	
3	 H06	-7.680	205.960	114.760	 H	1	UNK0	0.000	
4	 H02	-9.260	207.880	112.470	 H	1	UNK0	0.000	
5	 H01	-10.960	207.910	110.680	 H	1	UNK0	0.000	
6	 H11	-15.520	207.890	109.360	 H	1	UNK0	0.000	
7	 H04	-12.330	206.570	115.250	 H	1	UNK0	0.000	
8	 H03	-13.970	206.630	113.400	 H	1	UNK0	0.000	
9	 H10	-16.200	203.730	111.780	 H	1	UNK0	0.000	
10	 H05	-7.490	207.610	115.080	 H	1	UNK0	0.000	
11	 H08	-18.610	206.060	109.340	 H	1	UNK0	0.000	
12	  C1	-12.550	207.170	111.900	C.2	1	UNK0	0.000	
13	  C2	-11.240	207.610	111.680	C.2	1	UNK0	0.000	
14	  C3	-10.290	207.610	112.700	C.2	1	UNK0	0.000	
15	  C4	-12.930	206.880	113.210	C.2	1	UNK0	0.000	
16	  C5	-12.010	206.870	114.250	C.2	1	UNK0	0.000	
17	  C6	-10.670	207.180	113.990	C.2	1	UNK0	0.000	
18	  S1	-9.450	206.830	115.280	S.o2	1	UNK0	0.000	
19	  O1	-9.500	205.440	115.650	O.2	1	UNK0	0.000	
20	  O2	-9.390	207.910	116.240	O.2	1	UNK0	0.000	
21	  N1	-8.010	206.880	114.550	N.3	1	UNK0	0.000	
22	  N2	-13.470	207.170	110.840	N.pl3	1	UNK0	0.000	
23	  N3	-17.890	206.750	109.150	N.pl3	1	UNK0	0.000	
24	  C7	-16.820	206.240	109.810	C.2	1	UNK0	0.000	
25	  N4	-17.050	205.090	110.450	N.2	1	UNK0	0.000	
26	  C8	-16.030	204.650	111.220	C.2	1	UNK0	0.000	
27	  N5	-14.830	205.260	111.390	N.2	1	UNK0	0.000	
28	  C9	-15.640	206.950	109.880	C.2	1	UNK0	0.000	
29	 C10	-14.650	206.430	110.710	C.2	1	UNK0	0.000	
@<TRIPOS>BOND
1 12 13 2
2 12 15 1
3 12 22 1
4 5 13 1
5 13 14 1
6 4 14 1
7 14 17 2
8 8 15 1
9 15 16 2
10 7 16 1
11 16 17 1
12 17 18 1
13 18 19 2
14 18 20 2
15 18 21 1
16 3 21 1
17 10 21 1
18 1 22 1
19 22 29 1
20 2 23 1
21 11 23 1
22 23 24 1
23 24 25 1
24 24 28 2
25 25 26 2
26 9 26 1
27 26 27 1
28 27 29 2
29 6 28 1
30 28 29 1
@<TRIPOS>SUBSTRUCTURE
1	UNK0	1	GROUP	1 ****	UNK
