# created with PyMOL 2.5.0
@<TRIPOS>MOLECULE
cocrystal/docking_cocrystal/1jsv_U55_LIG.pdb
29 30 1                 
SMALL
USER_CHARGES
@<TRIPOS>ATOM
1	 H07	-12.940	204.340	110.710	 H	1	UNK0	0.000	
2	 H09	-18.020	206.580	110.820	 H	1	UNK0	0.000	
3	 H06	-6.700	208.110	112.090	 H	1	UNK0	0.000	
4	 H02	-10.010	208.280	109.840	 H	1	UNK0	0.000	
5	 H01	-11.990	206.920	109.190	 H	1	UNK0	0.000	
6	 H11	-15.440	206.940	110.800	 H	1	UNK0	0.000	
7	 H04	-10.430	206.850	113.900	 H	1	UNK0	0.000	
8	 H03	-12.400	205.510	113.200	 H	1	UNK0	0.000	
9	 H10	-15.990	202.650	112.980	 H	1	UNK0	0.000	
10	 H05	-7.400	208.870	110.740	 H	1	UNK0	0.000	
11	 H08	-18.600	205.740	112.120	 H	1	UNK0	0.000	
12	  C1	-12.340	206.160	111.150	C.2	1	UNK0	0.000	
13	  C2	-11.650	206.930	110.210	C.2	1	UNK0	0.000	
14	  C3	-10.530	207.680	110.580	C.2	1	UNK0	0.000	
15	  C4	-11.880	206.130	112.480	C.2	1	UNK0	0.000	
16	  C5	-10.760	206.870	112.870	C.2	1	UNK0	0.000	
17	  C6	-10.080	207.640	111.910	C.2	1	UNK0	0.000	
18	  S1	-8.660	208.660	112.380	S.o2	1	UNK0	0.000	
19	  O1	-8.210	208.290	113.700	O.2	1	UNK0	0.000	
20	  O2	-8.870	210.030	111.970	O.2	1	UNK0	0.000	
21	  N1	-7.480	208.110	111.440	N.3	1	UNK0	0.000	
22	  N2	-13.340	205.280	110.700	N.pl3	1	UNK0	0.000	
23	  N3	-17.870	206.380	111.800	N.pl3	1	UNK0	0.000	
24	  C7	-16.750	205.610	111.900	C.2	1	UNK0	0.000	
25	  N4	-16.920	204.460	112.560	N.2	1	UNK0	0.000	
26	  C8	-15.850	203.630	112.530	C.2	1	UNK0	0.000	
27	  N5	-14.650	203.860	111.960	N.2	1	UNK0	0.000	
28	  C9	-15.550	206.000	111.330	C.2	1	UNK0	0.000	
29	 C10	-14.520	205.060	111.370	C.2	1	UNK0	0.000	
@<TRIPOS>BOND
1 12 13 2
2 12 15 1
3 12 22 1
4 5 13 1
5 13 14 1
6 4 14 1
7 14 17 2
8 8 15 1
9 15 16 2
10 7 16 1
11 16 17 1
12 17 18 1
13 18 19 2
14 18 20 2
15 18 21 1
16 3 21 1
17 10 21 1
18 1 22 1
19 22 29 1
20 2 23 1
21 11 23 1
22 23 24 1
23 24 25 1
24 24 28 2
25 25 26 2
26 9 26 1
27 26 27 1
28 27 29 2
29 6 28 1
30 28 29 1
@<TRIPOS>SUBSTRUCTURE
1	UNK0	1	GROUP	1 ****	UNK
