# created with PyMOL 2.5.0
@<TRIPOS>MOLECULE
cocrystal/docking_cocrystal/1jsv_U55_LIG.pdb
18 19 1                 
SMALL
USER_CHARGES
@<TRIPOS>ATOM
1	  C1	-13.609	206.214	111.845	C.2	1	UNK0	0.000	
2	  C2	-12.693	206.051	110.799	C.2	1	UNK0	0.000	
3	  C3	-11.445	206.647	110.848	C.2	1	UNK0	0.000	
4	  C4	-13.235	206.983	112.959	C.2	1	UNK0	0.000	
5	  C5	-11.996	207.609	113.019	C.2	1	UNK0	0.000	
6	  C6	-11.091	207.436	111.953	C.2	1	UNK0	0.000	
7	  S1	-9.621	208.486	111.824	S.o2	1	UNK0	0.000	
8	  O1	-9.673	209.516	112.817	O.2	1	UNK0	0.000	
9	  O2	-9.330	208.727	110.427	O.2	1	UNK0	0.000	
10	  N1	-8.427	207.542	112.333	N.3	1	UNK0	0.000	
11	  N2	-14.914	205.772	111.631	N.pl3	1	UNK0	0.000	
12	  N3	-19.460	205.241	112.908	N.pl3	1	UNK0	0.000	
13	  C7	-18.121	205.094	113.129	C.2	1	UNK0	0.000	
14	  N4	-17.808	204.492	114.267	N.2	1	UNK0	0.000	
15	  C8	-16.476	204.432	114.570	C.2	1	UNK0	0.000	
16	  N5	-15.476	204.845	113.753	N.2	1	UNK0	0.000	
17	  C9	-17.184	205.577	112.236	C.2	1	UNK0	0.000	
18	 C10	-15.850	205.407	112.587	C.2	1	UNK0	0.000	
@<TRIPOS>BOND
1 1 2 2
2 1 4 1
3 1 11 1
4 2 3 1
5 3 6 2
6 4 5 2
7 5 6 1
8 6 7 1
9 7 8 2
10 7 9 2
11 7 10 1
12 11 18 1
13 12 13 1
14 13 14 1
15 13 17 2
16 14 15 2
17 15 16 1
18 16 18 2
19 17 18 1
@<TRIPOS>SUBSTRUCTURE
1	UNK0	1	GROUP	1 ****	UNK
