# created with PyMOL 2.5.0
@<TRIPOS>MOLECULE
cocrystal/docking_cocrystal/1jsv_U55_LIG.pdb
29 30 1                 
SMALL
USER_CHARGES
@<TRIPOS>ATOM
1	 H07	-10.780	212.400	120.070	 H	1	UNK0	0.000	
2	 H09	-16.410	203.500	125.240	 H	1	UNK0	0.000	
3	 H06	9.750	199.210	119.710	 H	1	UNK0	0.000	
4	 H02	-23.300	217.380	122.110	 H	1	UNK0	0.000	
5	 H01	-26.170	215.190	116.230	 H	1	UNK0	0.000	
6	 H11	-7.500	201.420	111.940	 H	1	UNK0	0.000	
7	 H04	-21.130	215.240	121.220	 H	1	UNK0	0.000	
8	 H03	-24.850	214.010	121.640	 H	1	UNK0	0.000	
9	 H10	-3.780	204.210	104.360	 H	1	UNK0	0.000	
10	 H05	9.720	200.370	120.990	 H	1	UNK0	0.000	
11	 H08	-14.460	211.340	120.940	 H	1	UNK0	0.000	
12	  C1	-25.170	217.050	121.230	C.2	1	UNK0	0.000	
13	  C2	-28.250	212.880	118.470	C.2	1	UNK0	0.000	
14	  C3	-32.090	210.840	115.930	C.2	1	UNK0	0.000	
15	  C4	-27.290	218.150	121.270	C.2	1	UNK0	0.000	
16	  C5	-24.230	212.620	120.940	C.2	1	UNK0	0.000	
17	  C6	-26.470	215.560	121.540	C.2	1	UNK0	0.000	
18	  S1	-12.290	195.410	126.220	S.o2	1	UNK0	0.000	
19	  O1	-14.760	204.740	125.990	O.2	1	UNK0	0.000	
20	  O2	-11.320	201.090	123.350	O.2	1	UNK0	0.000	
21	  N1	4.170	216.030	115.350	N.3	1	UNK0	0.000	
22	  N2	-24.230	208.070	117.100	N.pl3	1	UNK0	0.000	
23	  N3	-16.180	200.160	107.900	N.pl3	1	UNK0	0.000	
24	  C7	-5.920	200.380	111.810	C.2	1	UNK0	0.000	
25	  N4	-4.140	198.400	109.250	N.2	1	UNK0	0.000	
26	  C8	-2.780	204.230	114.140	C.2	1	UNK0	0.000	
27	  N5	-4.250	197.280	112.480	N.2	1	UNK0	0.000	
28	  C9	-3.150	201.760	111.190	C.2	1	UNK0	0.000	
29	 C10	-3.560	199.970	112.260	C.2	1	UNK0	0.000	
@<TRIPOS>BOND
1 12 13 2
2 12 15 1
3 12 22 1
4 5 13 1
5 13 14 1
6 4 14 1
7 14 17 2
8 8 15 1
9 15 16 2
10 7 16 1
11 16 17 1
12 17 18 1
13 18 19 2
14 18 20 2
15 18 21 1
16 3 21 1
17 10 21 1
18 1 22 1
19 22 29 1
20 2 23 1
21 11 23 1
22 23 24 1
23 24 25 1
24 24 28 2
25 25 26 2
26 9 26 1
27 26 27 1
28 27 29 2
29 6 28 1
30 28 29 1
@<TRIPOS>SUBSTRUCTURE
1	UNK0	1	GROUP	1 ****	UNK
