# created with PyMOL 2.5.0
@<TRIPOS>MOLECULE
cocrystal/docking_cocrystal/1jsv_U55_LIG.pdb
18 19 1                 
SMALL
USER_CHARGES
@<TRIPOS>ATOM
1	  C1	-13.413	206.638	112.320	C.2	1	UNK0	0.000	
2	  C2	-12.084	207.009	112.088	C.2	1	UNK0	0.000	
3	  C3	-11.123	206.947	113.097	C.2	1	UNK0	0.000	
4	  C4	-13.793	206.356	113.632	C.2	1	UNK0	0.000	
5	  C5	-12.863	206.286	114.660	C.2	1	UNK0	0.000	
6	  C6	-11.511	206.525	114.387	C.2	1	UNK0	0.000	
7	  S1	-10.297	206.097	115.659	S.o2	1	UNK0	0.000	
8	  O1	-10.418	204.708	116.016	O.2	1	UNK0	0.000	
9	  O2	-10.167	207.163	116.628	O.2	1	UNK0	0.000	
10	  N1	-8.865	206.076	114.912	N.3	1	UNK0	0.000	
11	  N2	-14.344	206.698	111.271	N.pl3	1	UNK0	0.000	
12	  N3	-18.799	206.535	109.631	N.pl3	1	UNK0	0.000	
13	  C7	-17.751	205.961	110.274	C.2	1	UNK0	0.000	
14	  N4	-18.035	204.819	110.906	N.2	1	UNK0	0.000	
15	  C8	-17.032	204.316	111.659	C.2	1	UNK0	0.000	
16	  N5	-15.799	204.859	111.820	N.2	1	UNK0	0.000	
17	  C9	-16.533	206.605	110.336	C.2	1	UNK0	0.000	
18	 C10	-15.563	206.024	111.149	C.2	1	UNK0	0.000	
@<TRIPOS>BOND
1 1 2 2
2 1 4 1
3 1 11 1
4 2 3 1
5 3 6 2
6 4 5 2
7 5 6 1
8 6 7 1
9 7 8 2
10 7 9 2
11 7 10 1
12 11 18 1
13 12 13 1
14 13 14 1
15 13 17 2
16 14 15 2
17 15 16 1
18 16 18 2
19 17 18 1
@<TRIPOS>SUBSTRUCTURE
1	UNK0	1	GROUP	1 ****	UNK
