# created with PyMOL 2.5.0
@<TRIPOS>MOLECULE
cocrystal/docking_cocrystal/1jsv_U55_LIG.pdb
29 30 1                 
SMALL
USER_CHARGES
@<TRIPOS>ATOM
1	 H07	-9.960	207.300	113.590	 H	1	UNK0	0.000	
2	 H09	-14.660	205.950	113.850	 H	1	UNK0	0.000	
3	 H06	-3.410	209.960	115.640	 H	1	UNK0	0.000	
4	 H02	-6.260	209.880	113.370	 H	1	UNK0	0.000	
5	 H01	-8.280	208.600	112.850	 H	1	UNK0	0.000	
6	 H11	-12.190	206.590	113.350	 H	1	UNK0	0.000	
7	 H04	-7.390	209.890	117.550	 H	1	UNK0	0.000	
8	 H03	-9.420	208.630	116.990	 H	1	UNK0	0.000	
9	 H10	-12.140	206.210	118.180	 H	1	UNK0	0.000	
10	 H05	-3.750	211.150	114.470	 H	1	UNK0	0.000	
11	 H08	-14.880	205.020	115.180	 H	1	UNK0	0.000	
12	  C1	-8.970	208.450	114.880	C.2	1	UNK0	0.000	
13	  C2	-8.080	208.850	113.880	C.2	1	UNK0	0.000	
14	  C3	-6.930	209.590	114.170	C.2	1	UNK0	0.000	
15	  C4	-8.720	208.860	116.200	C.2	1	UNK0	0.000	
16	  C5	-7.560	209.580	116.520	C.2	1	UNK0	0.000	
17	  C6	-6.670	209.950	115.500	C.2	1	UNK0	0.000	
18	  S1	-5.170	210.890	115.920	S.o2	1	UNK0	0.000	
19	  O1	-4.590	210.470	117.170	O.2	1	UNK0	0.000	
20	  O2	-5.260	212.260	115.450	O.2	1	UNK0	0.000	
21	  N1	-4.070	210.290	114.930	N.3	1	UNK0	0.000	
22	  N2	-10.140	207.760	114.460	N.pl3	1	UNK0	0.000	
23	  N3	-14.200	205.270	114.440	N.pl3	1	UNK0	0.000	
24	  C7	-13.170	205.860	115.120	C.2	1	UNK0	0.000	
25	  N4	-13.190	205.730	116.440	N.2	1	UNK0	0.000	
26	  C8	-12.150	206.300	117.100	C.2	1	UNK0	0.000	
27	  N5	-11.120	206.970	116.530	N.2	1	UNK0	0.000	
28	  C9	-12.160	206.510	114.430	C.2	1	UNK0	0.000	
29	 C10	-11.120	207.070	115.180	C.2	1	UNK0	0.000	
@<TRIPOS>BOND
1 12 13 2
2 12 15 1
3 12 22 1
4 5 13 1
5 13 14 1
6 4 14 1
7 14 17 2
8 8 15 1
9 15 16 2
10 7 16 1
11 16 17 1
12 17 18 1
13 18 19 2
14 18 20 2
15 18 21 1
16 3 21 1
17 10 21 1
18 1 22 1
19 22 29 1
20 2 23 1
21 11 23 1
22 23 24 1
23 24 25 1
24 24 28 2
25 25 26 2
26 9 26 1
27 26 27 1
28 27 29 2
29 6 28 1
30 28 29 1
@<TRIPOS>SUBSTRUCTURE
1	UNK0	1	GROUP	1 ****	UNK
