# created with PyMOL 2.5.0
@<TRIPOS>MOLECULE
cocrystal/docking_cocrystal/1jsv_U55_LIG.pdb
18 19 1                 
SMALL
USER_CHARGES
@<TRIPOS>ATOM
1	  C1	-12.840	206.195	111.485	C.2	1	UNK0	0.000	
2	  C2	-11.915	206.447	110.461	C.2	1	UNK0	0.000	
3	  C3	-10.572	206.736	110.762	C.2	1	UNK0	0.000	
4	  C4	-12.394	206.242	112.819	C.2	1	UNK0	0.000	
5	  C5	-11.071	206.541	113.141	C.2	1	UNK0	0.000	
6	  C6	-10.166	206.793	112.098	C.2	1	UNK0	0.000	
7	  S1	-8.471	207.302	112.489	S.o2	1	UNK0	0.000	
8	  O1	-7.540	206.383	111.875	O.2	1	UNK0	0.000	
9	  O2	-8.375	207.706	113.877	O.2	1	UNK0	0.000	
10	  N1	-8.345	208.685	111.669	N.3	1	UNK0	0.000	
11	  N2	-14.186	206.067	111.119	N.pl3	1	UNK0	0.000	
12	  N3	-18.876	206.110	111.931	N.pl3	1	UNK0	0.000	
13	  C7	-17.631	205.600	112.185	C.2	1	UNK0	0.000	
14	  N4	-17.519	204.851	113.282	N.2	1	UNK0	0.000	
15	  C8	-16.260	204.548	113.661	C.2	1	UNK0	0.000	
16	  N5	-15.130	204.862	112.980	N.2	1	UNK0	0.000	
17	  C9	-16.555	206.026	111.429	C.2	1	UNK0	0.000	
18	 C10	-15.293	205.611	111.855	C.2	1	UNK0	0.000	
@<TRIPOS>BOND
1 1 2 2
2 1 4 1
3 1 11 1
4 2 3 1
5 3 6 2
6 4 5 2
7 5 6 1
8 6 7 1
9 7 8 2
10 7 9 2
11 7 10 1
12 11 18 1
13 12 13 1
14 13 14 1
15 13 17 2
16 14 15 2
17 15 16 1
18 16 18 2
19 17 18 1
@<TRIPOS>SUBSTRUCTURE
1	UNK0	1	GROUP	1 ****	UNK
