# created with PyMOL 2.5.0
@<TRIPOS>MOLECULE
cocrystal/docking_cocrystal/1jsv_U55_LIG.pdb
29 30 1                 
SMALL
USER_CHARGES
@<TRIPOS>ATOM
1	 H07	-14.620	205.490	111.180	 H	1	UNK0	0.000	
2	 H09	-19.290	205.210	112.200	 H	1	UNK0	0.000	
3	 H06	-7.600	208.480	113.500	 H	1	UNK0	0.000	
4	 H02	-10.350	206.790	110.500	 H	1	UNK0	0.000	
5	 H01	-12.560	205.760	110.350	 H	1	UNK0	0.000	
6	 H11	-17.100	206.360	111.590	 H	1	UNK0	0.000	
7	 H04	-11.450	208.600	114.280	 H	1	UNK0	0.000	
8	 H03	-13.650	207.480	114.120	 H	1	UNK0	0.000	
9	 H10	-15.980	204.390	115.880	 H	1	UNK0	0.000	
10	 H05	-7.490	207.640	112.070	 H	1	UNK0	0.000	
11	 H08	-19.600	204.940	113.780	 H	1	UNK0	0.000	
12	  C1	-13.240	206.510	112.250	C.2	1	UNK0	0.000	
13	  C2	-12.290	206.320	111.240	C.2	1	UNK0	0.000	
14	  C3	-11.040	206.910	111.320	C.2	1	UNK0	0.000	
15	  C4	-12.900	207.300	113.360	C.2	1	UNK0	0.000	
16	  C5	-11.660	207.920	113.450	C.2	1	UNK0	0.000	
17	  C6	-10.720	207.720	112.420	C.2	1	UNK0	0.000	
18	  S1	-9.240	208.760	112.320	S.o2	1	UNK0	0.000	
19	  O1	-9.320	209.810	113.290	O.2	1	UNK0	0.000	
20	  O2	-8.900	208.970	110.930	O.2	1	UNK0	0.000	
21	  N1	-8.070	207.820	112.890	N.3	1	UNK0	0.000	
22	  N2	-14.540	206.070	112.000	N.pl3	1	UNK0	0.000	
23	  N3	-19.130	205.590	113.130	N.pl3	1	UNK0	0.000	
24	  C7	-17.800	205.440	113.400	C.2	1	UNK0	0.000	
25	  N4	-17.530	204.860	114.560	N.2	1	UNK0	0.000	
26	  C8	-16.210	204.800	114.910	C.2	1	UNK0	0.000	
27	  N5	-15.180	205.190	114.120	N.2	1	UNK0	0.000	
28	  C9	-16.830	205.900	112.530	C.2	1	UNK0	0.000	
29	 C10	-15.510	205.730	112.930	C.2	1	UNK0	0.000	
@<TRIPOS>BOND
1 12 13 2
2 12 15 1
3 12 22 1
4 5 13 1
5 13 14 1
6 4 14 1
7 14 17 2
8 8 15 1
9 15 16 2
10 7 16 1
11 16 17 1
12 17 18 1
13 18 19 2
14 18 20 2
15 18 21 1
16 3 21 1
17 10 21 1
18 1 22 1
19 22 29 1
20 2 23 1
21 11 23 1
22 23 24 1
23 24 25 1
24 24 28 2
25 25 26 2
26 9 26 1
27 26 27 1
28 27 29 2
29 6 28 1
30 28 29 1
@<TRIPOS>SUBSTRUCTURE
1	UNK0	1	GROUP	1 ****	UNK
