# created with PyMOL 2.5.0
@<TRIPOS>MOLECULE
cocrystal/docking_cocrystal/1jsv_U55_LIG.pdb
18 19 1                 
SMALL
USER_CHARGES
@<TRIPOS>ATOM
1	  C1	-13.211	205.761	111.002	C.2	1	UNK0	0.000	
2	  C2	-12.301	205.961	109.951	C.2	1	UNK0	0.000	
3	  C3	-11.218	206.833	110.094	C.2	1	UNK0	0.000	
4	  C4	-13.037	206.453	112.196	C.2	1	UNK0	0.000	
5	  C5	-11.984	207.354	112.360	C.2	1	UNK0	0.000	
6	  C6	-11.074	207.524	111.298	C.2	1	UNK0	0.000	
7	  S1	-9.740	208.700	111.562	S.o2	1	UNK0	0.000	
8	  O1	-8.614	208.056	112.190	O.2	1	UNK0	0.000	
9	  O2	-10.303	209.952	111.980	O.2	1	UNK0	0.000	
10	  N1	-9.153	209.158	110.157	N.3	1	UNK0	0.000	
11	  N2	-14.204	204.791	110.824	N.pl3	1	UNK0	0.000	
12	  N3	-18.311	206.098	112.942	N.pl3	1	UNK0	0.000	
13	  C7	-17.335	205.210	112.638	C.2	1	UNK0	0.000	
14	  N4	-17.634	203.953	112.960	N.2	1	UNK0	0.000	
15	  C8	-16.730	203.031	112.525	C.2	1	UNK0	0.000	
16	  N5	-15.566	203.281	111.875	N.2	1	UNK0	0.000	
17	  C9	-16.181	205.600	111.975	C.2	1	UNK0	0.000	
18	 C10	-15.317	204.575	111.606	C.2	1	UNK0	0.000	
@<TRIPOS>BOND
1 1 2 2
2 1 4 1
3 1 11 1
4 2 3 1
5 3 6 2
6 4 5 2
7 5 6 1
8 6 7 1
9 7 8 2
10 7 9 2
11 7 10 1
12 11 18 1
13 12 13 1
14 13 14 1
15 13 17 2
16 14 15 2
17 15 16 1
18 16 18 2
19 17 18 1
@<TRIPOS>SUBSTRUCTURE
1	UNK0	1	GROUP	1 ****	UNK
