# created with PyMOL 2.5.0
@<TRIPOS>MOLECULE
cocrystal/docking_cocrystal/1jsv_U55_LIG.pdb
29 30 1                 
SMALL
USER_CHARGES
@<TRIPOS>ATOM
1	 H07	-11.110	205.810	111.390	 H	1	UNK0	0.000	
2	 H09	-15.980	206.380	114.650	 H	1	UNK0	0.000	
3	 H06	-5.180	207.690	115.650	 H	1	UNK0	0.000	
4	 H02	-7.400	208.260	112.750	 H	1	UNK0	0.000	
5	 H01	-9.210	207.370	111.360	 H	1	UNK0	0.000	
6	 H11	-13.440	207.530	113.720	 H	1	UNK0	0.000	
7	 H04	-9.710	207.360	116.310	 H	1	UNK0	0.000	
8	 H03	-11.540	206.500	114.870	 H	1	UNK0	0.000	
9	 H10	-14.690	203.680	111.030	 H	1	UNK0	0.000	
10	 H05	-5.390	208.880	114.430	 H	1	UNK0	0.000	
11	 H08	-16.810	206.230	113.290	 H	1	UNK0	0.000	
12	  C1	-10.500	206.860	113.010	C.2	1	UNK0	0.000	
13	  C2	-9.320	207.360	112.440	C.2	1	UNK0	0.000	
14	  C3	-8.290	207.870	113.230	C.2	1	UNK0	0.000	
15	  C4	-10.630	206.880	114.410	C.2	1	UNK0	0.000	
16	  C5	-9.600	207.360	115.230	C.2	1	UNK0	0.000	
17	  C6	-8.430	207.870	114.620	C.2	1	UNK0	0.000	
18	  S1	-7.070	208.520	115.650	S.o2	1	UNK0	0.000	
19	  O1	-6.990	207.790	116.890	O.2	1	UNK0	0.000	
20	  O2	-7.010	209.950	115.570	O.2	1	UNK0	0.000	
21	  N1	-5.750	208.020	114.880	N.3	1	UNK0	0.000	
22	  N2	-11.480	206.410	112.120	N.pl3	1	UNK0	0.000	
23	  N3	-16.060	206.780	113.690	N.pl3	1	UNK0	0.000	
24	  C7	-15.020	206.220	113.020	C.2	1	UNK0	0.000	
25	  N4	-15.410	205.160	112.300	N.2	1	UNK0	0.000	
26	  C8	-14.420	204.560	111.600	C.2	1	UNK0	0.000	
27	  N5	-13.120	204.930	111.550	N.2	1	UNK0	0.000	
28	  C9	-13.700	206.660	113.140	C.2	1	UNK0	0.000	
29	 C10	-12.790	205.990	112.330	C.2	1	UNK0	0.000	
@<TRIPOS>BOND
1 12 13 2
2 12 15 1
3 12 22 1
4 5 13 1
5 13 14 1
6 4 14 1
7 14 17 2
8 8 15 1
9 15 16 2
10 7 16 1
11 16 17 1
12 17 18 1
13 18 19 2
14 18 20 2
15 18 21 1
16 3 21 1
17 10 21 1
18 1 22 1
19 22 29 1
20 2 23 1
21 11 23 1
22 23 24 1
23 24 25 1
24 24 28 2
25 25 26 2
26 9 26 1
27 26 27 1
28 27 29 2
29 6 28 1
30 28 29 1
@<TRIPOS>SUBSTRUCTURE
1	UNK0	1	GROUP	1 ****	UNK
