# created with PyMOL 2.5.0
@<TRIPOS>MOLECULE
cocrystal/docking_cocrystal/1jsv_U55_LIG.pdb
29 30 1                 
SMALL
USER_CHARGES
@<TRIPOS>ATOM
1	 H07	-10.070	205.850	111.420	 H	1	UNK0	0.000	
2	 H09	-13.960	206.060	115.780	 H	1	UNK0	0.000	
3	 H06	-5.780	210.570	115.670	 H	1	UNK0	0.000	
4	 H02	-6.220	208.220	112.330	 H	1	UNK0	0.000	
5	 H01	-8.190	207.270	111.190	 H	1	UNK0	0.000	
6	 H11	-12.070	207.210	114.220	 H	1	UNK0	0.000	
7	 H04	-8.250	207.750	116.140	 H	1	UNK0	0.000	
8	 H03	-10.180	206.790	114.960	 H	1	UNK0	0.000	
9	 H10	-13.510	203.390	111.600	 H	1	UNK0	0.000	
10	 H05	-6.060	210.330	114.030	 H	1	UNK0	0.000	
11	 H08	-15.220	205.540	114.860	 H	1	UNK0	0.000	
12	  C1	-9.310	206.920	112.980	C.2	1	UNK0	0.000	
13	  C2	-8.190	207.360	112.270	C.2	1	UNK0	0.000	
14	  C3	-7.090	207.910	112.910	C.2	1	UNK0	0.000	
15	  C4	-9.330	207.110	114.380	C.2	1	UNK0	0.000	
16	  C5	-8.240	207.660	115.050	C.2	1	UNK0	0.000	
17	  C6	-7.110	208.050	114.310	C.2	1	UNK0	0.000	
18	  S1	-5.580	208.500	115.160	S.o2	1	UNK0	0.000	
19	  O1	-4.510	207.800	114.460	O.2	1	UNK0	0.000	
20	  O2	-5.770	208.420	116.590	O.2	1	UNK0	0.000	
21	  N1	-5.450	210.080	114.820	N.3	1	UNK0	0.000	
22	  N2	-10.360	206.370	112.240	N.pl3	1	UNK0	0.000	
23	  N3	-14.390	206.160	114.870	N.pl3	1	UNK0	0.000	
24	  C7	-13.560	205.690	113.890	C.2	1	UNK0	0.000	
25	  N4	-14.000	204.650	113.180	N.2	1	UNK0	0.000	
26	  C8	-13.170	204.230	112.200	C.2	1	UNK0	0.000	
27	  N5	-11.960	204.760	111.890	N.2	1	UNK0	0.000	
28	  C9	-12.350	206.320	113.680	C.2	1	UNK0	0.000	
29	 C10	-11.570	205.810	112.640	C.2	1	UNK0	0.000	
@<TRIPOS>BOND
1 12 13 2
2 12 15 1
3 12 22 1
4 5 13 1
5 13 14 1
6 4 14 1
7 14 17 2
8 8 15 1
9 15 16 2
10 7 16 1
11 16 17 1
12 17 18 1
13 18 19 2
14 18 20 2
15 18 21 1
16 3 21 1
17 10 21 1
18 1 22 1
19 22 29 1
20 2 23 1
21 11 23 1
22 23 24 1
23 24 25 1
24 24 28 2
25 25 26 2
26 9 26 1
27 26 27 1
28 27 29 2
29 6 28 1
30 28 29 1
@<TRIPOS>SUBSTRUCTURE
1	UNK0	1	GROUP	1 ****	UNK
