# created with PyMOL 2.5.0
@<TRIPOS>MOLECULE
cocrystal/docking_cocrystal/1jsv_U55_LIG.pdb
18 19 1                 
SMALL
USER_CHARGES
@<TRIPOS>ATOM
1	  C1	-9.974	206.985	110.704	C.2	1	UNK0	0.000	
2	  C2	-9.228	206.970	109.521	C.2	1	UNK0	0.000	
3	  C3	-7.843	207.120	109.537	C.2	1	UNK0	0.000	
4	  C4	-9.288	207.233	111.907	C.2	1	UNK0	0.000	
5	  C5	-7.901	207.361	111.952	C.2	1	UNK0	0.000	
6	  C6	-7.164	207.307	110.746	C.2	1	UNK0	0.000	
7	  S1	-5.359	207.503	110.815	S.o2	1	UNK0	0.000	
8	  O1	-4.736	206.190	110.900	O.2	1	UNK0	0.000	
9	  O2	-5.009	208.581	111.702	O.2	1	UNK0	0.000	
10	  N1	-4.927	208.085	109.360	N.3	1	UNK0	0.000	
11	  N2	-11.374	206.891	110.582	N.pl3	1	UNK0	0.000	
12	  N3	-16.003	206.644	111.754	N.pl3	1	UNK0	0.000	
13	  C7	-14.672	206.602	112.059	C.2	1	UNK0	0.000	
14	  N4	-14.443	206.362	113.340	N.2	1	UNK0	0.000	
15	  C8	-13.129	206.266	113.692	C.2	1	UNK0	0.000	
16	  N5	-12.082	206.381	112.841	N.2	1	UNK0	0.000	
17	  C9	-13.690	206.772	111.104	C.2	1	UNK0	0.000	
18	 C10	-12.363	206.660	111.544	C.2	1	UNK0	0.000	
@<TRIPOS>BOND
1 1 2 2
2 1 4 1
3 1 11 1
4 2 3 1
5 3 6 2
6 4 5 2
7 5 6 1
8 6 7 1
9 7 8 2
10 7 9 2
11 7 10 1
12 11 18 1
13 12 13 1
14 13 14 1
15 13 17 2
16 14 15 2
17 15 16 1
18 16 18 2
19 17 18 1
@<TRIPOS>SUBSTRUCTURE
1	UNK0	1	GROUP	1 ****	UNK
