# created with PyMOL 2.5.0
@<TRIPOS>MOLECULE
cocrystal/docking_cocrystal/1jsv_U55_LIG.pdb
18 19 1                 
SMALL
USER_CHARGES
@<TRIPOS>ATOM
1	  C1	-9.968	211.445	110.212	C.2	1	UNK0	0.000	
2	  C2	-6.621	207.599	113.118	C.2	1	UNK0	0.000	
3	  C3	-8.338	209.656	111.457	C.2	1	UNK0	0.000	
4	  C4	0.100	214.331	110.562	C.2	1	UNK0	0.000	
5	  C5	-4.121	213.839	105.490	C.2	1	UNK0	0.000	
6	  C6	-7.477	207.796	111.562	C.2	1	UNK0	0.000	
7	  S1	1.993	215.251	125.964	S.o2	1	UNK0	0.000	
8	  O1	4.875	215.059	116.662	O.2	1	UNK0	0.000	
9	  O2	3.153	215.069	123.983	O.2	1	UNK0	0.000	
10	  N1	2.966	214.947	125.830	N.3	1	UNK0	0.000	
11	  N2	-12.843	204.845	110.406	N.pl3	1	UNK0	0.000	
12	  N3	-10.865	198.420	104.919	N.pl3	1	UNK0	0.000	
13	  C7	-7.820	219.900	119.894	C.2	1	UNK0	0.000	
14	  N4	-5.602	219.860	121.601	N.2	1	UNK0	0.000	
15	  C8	-5.763	218.763	123.334	C.2	1	UNK0	0.000	
16	  N5	-7.583	215.920	120.550	N.2	1	UNK0	0.000	
17	  C9	-5.132	220.078	123.578	C.2	1	UNK0	0.000	
18	 C10	-8.957	218.452	122.652	C.2	1	UNK0	0.000	
@<TRIPOS>BOND
1 1 2 2
2 1 4 1
3 1 11 1
4 2 3 1
5 3 6 2
6 4 5 2
7 5 6 1
8 6 7 1
9 7 8 2
10 7 9 2
11 7 10 1
12 11 18 1
13 12 13 1
14 13 14 1
15 13 17 2
16 14 15 2
17 15 16 1
18 16 18 2
19 17 18 1
@<TRIPOS>SUBSTRUCTURE
1	UNK0	1	GROUP	1 ****	UNK
