# created with PyMOL 2.5.0
@<TRIPOS>MOLECULE
cocrystal/docking_cocrystal/1jsv_U55_LIG.pdb
18 19 1                 
SMALL
USER_CHARGES
@<TRIPOS>ATOM
1	  C1	-11.405	207.650	113.475	C.2	1	UNK0	0.000	
2	  C2	-10.690	207.705	112.279	C.2	1	UNK0	0.000	
3	  C3	-9.309	207.892	112.277	C.2	1	UNK0	0.000	
4	  C4	-10.718	207.751	114.688	C.2	1	UNK0	0.000	
5	  C5	-9.336	207.956	114.717	C.2	1	UNK0	0.000	
6	  C6	-8.632	208.032	113.502	C.2	1	UNK0	0.000	
7	  S1	-6.839	208.245	113.546	S.o2	1	UNK0	0.000	
8	  O1	-6.225	206.961	113.371	O.2	1	UNK0	0.000	
9	  O2	-6.517	209.145	114.636	O.2	1	UNK0	0.000	
10	  N1	-6.489	209.111	112.198	N.3	1	UNK0	0.000	
11	  N2	-12.788	207.456	113.417	N.pl3	1	UNK0	0.000	
12	  N3	-13.886	203.369	115.645	N.pl3	1	UNK0	0.000	
13	  C7	-13.848	204.182	114.537	C.2	1	UNK0	0.000	
14	  N4	-14.410	203.684	113.428	N.2	1	UNK0	0.000	
15	  C8	-14.450	204.544	112.375	C.2	1	UNK0	0.000	
16	  N5	-13.940	205.796	112.345	N.2	1	UNK0	0.000	
17	  C9	-13.283	205.437	114.635	C.2	1	UNK0	0.000	
18	 C10	-13.346	206.202	113.488	C.2	1	UNK0	0.000	
@<TRIPOS>BOND
1 1 2 2
2 1 4 1
3 1 11 1
4 2 3 1
5 3 6 2
6 4 5 2
7 5 6 1
8 6 7 1
9 7 8 2
10 7 9 2
11 7 10 1
12 11 18 1
13 12 13 1
14 13 14 1
15 13 17 2
16 14 15 2
17 15 16 1
18 16 18 2
19 17 18 1
@<TRIPOS>SUBSTRUCTURE
1	UNK0	1	GROUP	1 ****	UNK
