# created with PyMOL 2.5.0
@<TRIPOS>MOLECULE
cocrystal/docking_cocrystal/1jsv_U55_LIG.pdb
29 30 1                 
SMALL
USER_CHARGES
@<TRIPOS>ATOM
1	 H07	-1.970	205.960	116.500	 H	1	UNK0	0.000	
2	 H09	-10.300	197.960	108.870	 H	1	UNK0	0.000	
3	 H06	-0.740	212.240	132.260	 H	1	UNK0	0.000	
4	 H02	-5.690	206.200	113.310	 H	1	UNK0	0.000	
5	 H01	-10.900	205.560	108.300	 H	1	UNK0	0.000	
6	 H11	-4.830	218.160	125.410	 H	1	UNK0	0.000	
7	 H04	-2.130	207.830	113.520	 H	1	UNK0	0.000	
8	 H03	-2.150	209.670	112.390	 H	1	UNK0	0.000	
9	 H10	-3.040	215.660	125.390	 H	1	UNK0	0.000	
10	 H05	-1.600	212.250	132.310	 H	1	UNK0	0.000	
11	 H08	-10.190	199.960	110.030	 H	1	UNK0	0.000	
12	  C1	-8.010	211.090	111.500	C.2	1	UNK0	0.000	
13	  C2	-4.820	206.900	114.090	C.2	1	UNK0	0.000	
14	  C3	-6.450	209.150	112.600	C.2	1	UNK0	0.000	
15	  C4	2.100	213.700	112.390	C.2	1	UNK0	0.000	
16	  C5	-1.990	213.810	107.190	C.2	1	UNK0	0.000	
17	  C6	-5.630	207.270	112.540	C.2	1	UNK0	0.000	
18	  S1	3.590	213.040	127.850	S.o2	1	UNK0	0.000	
19	  O1	6.720	213.710	118.650	O.2	1	UNK0	0.000	
20	  O2	4.800	213.030	125.890	O.2	1	UNK0	0.000	
21	  N1	4.560	212.730	127.710	N.3	1	UNK0	0.000	
22	  N2	-11.020	204.570	110.960	N.pl3	1	UNK0	0.000	
23	  N3	-9.020	198.680	104.910	N.pl3	1	UNK0	0.000	
24	  C7	-5.960	218.490	122.030	C.2	1	UNK0	0.000	
25	  N4	-3.790	218.230	123.780	N.2	1	UNK0	0.000	
26	  C8	-4.020	216.970	125.390	C.2	1	UNK0	0.000	
27	  N5	-5.820	214.460	122.290	N.2	1	UNK0	0.000	
28	  C9	-3.370	218.240	125.780	C.2	1	UNK0	0.000	
29	 C10	-7.200	216.800	124.600	C.2	1	UNK0	0.000	
@<TRIPOS>BOND
1 12 13 2
2 12 15 1
3 12 22 1
4 5 13 1
5 13 14 1
6 4 14 1
7 14 17 2
8 8 15 1
9 15 16 2
10 7 16 1
11 16 17 1
12 17 18 1
13 18 19 2
14 18 20 2
15 18 21 1
16 3 21 1
17 10 21 1
18 1 22 1
19 22 29 1
20 2 23 1
21 11 23 1
22 23 24 1
23 24 25 1
24 24 28 2
25 25 26 2
26 9 26 1
27 26 27 1
28 27 29 2
29 6 28 1
30 28 29 1
@<TRIPOS>SUBSTRUCTURE
1	UNK0	1	GROUP	1 ****	UNK
