# created with PyMOL 2.5.0
@<TRIPOS>MOLECULE
cocrystal/docking_cocrystal/1jsv_U55_LIG.pdb
18 19 1                 
SMALL
USER_CHARGES
@<TRIPOS>ATOM
1	  C1	-11.055	206.511	111.033	C.2	1	UNK0	0.000	
2	  C2	-9.852	206.537	110.348	C.2	1	UNK0	0.000	
3	  C3	-8.664	206.956	110.937	C.2	1	UNK0	0.000	
4	  C4	-11.050	206.867	112.395	C.2	1	UNK0	0.000	
5	  C5	-9.882	207.283	113.034	C.2	1	UNK0	0.000	
6	  C6	-8.689	207.333	112.300	C.2	1	UNK0	0.000	
7	  S1	-7.197	207.946	113.156	S.o2	1	UNK0	0.000	
8	  O1	-6.632	206.897	113.970	O.2	1	UNK0	0.000	
9	  O2	-7.428	209.289	113.630	O.2	1	UNK0	0.000	
10	  N1	-6.080	208.120	112.011	N.3	1	UNK0	0.000	
11	  N2	-12.223	206.118	110.356	N.pl3	1	UNK0	0.000	
12	  N3	-16.231	208.315	109.055	N.pl3	1	UNK0	0.000	
13	  C7	-15.445	207.761	110.018	C.2	1	UNK0	0.000	
14	  N4	-16.054	207.505	111.179	N.2	1	UNK0	0.000	
15	  C8	-15.354	206.730	112.045	C.2	1	UNK0	0.000	
16	  N5	-14.104	206.227	111.831	N.2	1	UNK0	0.000	
17	  C9	-14.185	207.287	109.686	C.2	1	UNK0	0.000	
18	 C10	-13.534	206.536	110.654	C.2	1	UNK0	0.000	
@<TRIPOS>BOND
1 1 2 2
2 1 4 1
3 1 11 1
4 2 3 1
5 3 6 2
6 4 5 2
7 5 6 1
8 6 7 1
9 7 8 2
10 7 9 2
11 7 10 1
12 11 18 1
13 12 13 1
14 13 14 1
15 13 17 2
16 14 15 2
17 15 16 1
18 16 18 2
19 17 18 1
@<TRIPOS>SUBSTRUCTURE
1	UNK0	1	GROUP	1 ****	UNK
