# created with PyMOL 2.5.0
@<TRIPOS>MOLECULE
cocrystal/docking_cocrystal/1jsv_U55_LIG.pdb
18 19 1                 
SMALL
USER_CHARGES
@<TRIPOS>ATOM
1	  C1	-11.733	206.326	111.204	C.2	1	UNK0	0.000	
2	  C2	-10.910	206.529	110.083	C.2	1	UNK0	0.000	
3	  C3	-9.533	206.750	110.202	C.2	1	UNK0	0.000	
4	  C4	-11.120	206.342	112.464	C.2	1	UNK0	0.000	
5	  C5	-9.762	206.593	112.614	C.2	1	UNK0	0.000	
6	  C6	-8.959	206.776	111.483	C.2	1	UNK0	0.000	
7	  S1	-7.160	206.957	111.723	S.o2	1	UNK0	0.000	
8	  O1	-6.509	205.688	111.469	O.2	1	UNK0	0.000	
9	  O2	-6.933	207.712	112.933	O.2	1	UNK0	0.000	
10	  N1	-6.633	207.927	110.531	N.3	1	UNK0	0.000	
11	  N2	-13.095	205.987	110.973	N.pl3	1	UNK0	0.000	
12	  N3	-17.831	205.629	111.642	N.pl3	1	UNK0	0.000	
13	  C7	-16.559	205.816	112.092	C.2	1	UNK0	0.000	
14	  N4	-16.483	205.902	113.413	N.2	1	UNK0	0.000	
15	  C8	-15.212	205.958	113.921	C.2	1	UNK0	0.000	
16	  N5	-14.075	205.998	113.181	N.2	1	UNK0	0.000	
17	  C9	-15.455	205.769	111.251	C.2	1	UNK0	0.000	
18	 C10	-14.200	205.934	111.842	C.2	1	UNK0	0.000	
@<TRIPOS>BOND
1 1 2 2
2 1 4 1
3 1 11 1
4 2 3 1
5 3 6 2
6 4 5 2
7 5 6 1
8 6 7 1
9 7 8 2
10 7 9 2
11 7 10 1
12 11 18 1
13 12 13 1
14 13 14 1
15 13 17 2
16 14 15 2
17 15 16 1
18 16 18 2
19 17 18 1
@<TRIPOS>SUBSTRUCTURE
1	UNK0	1	GROUP	1 ****	UNK
