# created with PyMOL 2.5.0
@<TRIPOS>MOLECULE
cocrystal/docking_cocrystal/1jsv_U55_LIG.pdb
29 30 1                 
SMALL
USER_CHARGES
@<TRIPOS>ATOM
1	 H07	-13.820	206.110	110.380	 H	1	UNK0	0.000	
2	 H09	-19.140	205.750	112.540	 H	1	UNK0	0.000	
3	 H06	-7.250	208.590	111.330	 H	1	UNK0	0.000	
4	 H02	-9.350	207.020	110.380	 H	1	UNK0	0.000	
5	 H01	-11.690	206.520	109.770	 H	1	UNK0	0.000	
6	 H11	-16.180	206.790	110.730	 H	1	UNK0	0.000	
7	 H04	-10.430	206.790	114.570	 H	1	UNK0	0.000	
8	 H03	-12.740	206.290	113.920	 H	1	UNK0	0.000	
9	 H10	-15.820	204.240	114.830	 H	1	UNK0	0.000	
10	 H05	-7.430	209.430	112.760	 H	1	UNK0	0.000	
11	 H08	-18.620	206.100	111.000	 H	1	UNK0	0.000	
12	  C1	-12.380	206.310	111.800	C.2	1	UNK0	0.000	
13	  C2	-11.410	206.530	110.810	C.2	1	UNK0	0.000	
14	  C3	-10.080	206.820	111.160	C.2	1	UNK0	0.000	
15	  C4	-11.990	206.390	113.150	C.2	1	UNK0	0.000	
16	  C5	-10.680	206.690	113.520	C.2	1	UNK0	0.000	
17	  C6	-9.730	206.910	112.510	C.2	1	UNK0	0.000	
18	  S1	-8.050	207.420	112.960	S.o2	1	UNK0	0.000	
19	  O1	-7.100	206.480	112.410	O.2	1	UNK0	0.000	
20	  O2	-8.010	207.860	114.340	O.2	1	UNK0	0.000	
21	  N1	-7.880	208.780	112.110	N.3	1	UNK0	0.000	
22	  N2	-13.710	206.180	111.380	N.pl3	1	UNK0	0.000	
23	  N3	-18.430	206.270	111.990	N.pl3	1	UNK0	0.000	
24	  C7	-17.200	205.760	112.310	C.2	1	UNK0	0.000	
25	  N4	-17.140	205.040	113.430	N.2	1	UNK0	0.000	
26	  C8	-15.900	204.740	113.870	C.2	1	UNK0	0.000	
27	  N5	-14.740	205.030	113.230	N.2	1	UNK0	0.000	
28	  C9	-16.090	206.160	111.590	C.2	1	UNK0	0.000	
29	 C10	-14.850	205.750	112.080	C.2	1	UNK0	0.000	
@<TRIPOS>BOND
1 12 13 2
2 12 15 1
3 12 22 1
4 5 13 1
5 13 14 1
6 4 14 1
7 14 17 2
8 8 15 1
9 15 16 2
10 7 16 1
11 16 17 1
12 17 18 1
13 18 19 2
14 18 20 2
15 18 21 1
16 3 21 1
17 10 21 1
18 1 22 1
19 22 29 1
20 2 23 1
21 11 23 1
22 23 24 1
23 24 25 1
24 24 28 2
25 25 26 2
26 9 26 1
27 26 27 1
28 27 29 2
29 6 28 1
30 28 29 1
@<TRIPOS>SUBSTRUCTURE
1	UNK0	1	GROUP	1 ****	UNK
