# created with PyMOL 2.5.0
@<TRIPOS>MOLECULE
cocrystal/docking_cocrystal/1jsv_U55_LIG.pdb
29 30 1                 
SMALL
USER_CHARGES
@<TRIPOS>ATOM
1	 H07	-12.900	207.930	112.550	 H	1	UNK0	0.000	
2	 H09	-14.520	204.260	116.510	 H	1	UNK0	0.000	
3	 H06	-5.840	210.220	112.710	 H	1	UNK0	0.000	
4	 H02	-8.550	208.120	111.550	 H	1	UNK0	0.000	
5	 H01	-10.990	207.760	111.480	 H	1	UNK0	0.000	
6	 H11	-12.770	206.200	115.730	 H	1	UNK0	0.000	
7	 H04	-8.770	208.460	115.880	 H	1	UNK0	0.000	
8	 H03	-11.210	208.100	115.760	 H	1	UNK0	0.000	
9	 H10	-14.700	204.370	111.670	 H	1	UNK0	0.000	
10	 H05	-7.120	209.580	111.870	 H	1	UNK0	0.000	
11	 H08	-14.260	202.930	115.590	 H	1	UNK0	0.000	
12	  C1	-11.260	207.940	113.610	C.2	1	UNK0	0.000	
13	  C2	-10.500	207.930	112.440	C.2	1	UNK0	0.000	
14	  C3	-9.120	208.120	112.480	C.2	1	UNK0	0.000	
15	  C4	-10.620	208.110	114.840	C.2	1	UNK0	0.000	
16	  C5	-9.240	208.320	114.910	C.2	1	UNK0	0.000	
17	  C6	-8.490	208.330	113.720	C.2	1	UNK0	0.000	
18	  S1	-6.700	208.550	113.820	S.o2	1	UNK0	0.000	
19	  O1	-6.080	207.260	113.740	O.2	1	UNK0	0.000	
20	  O2	-6.420	209.510	114.870	O.2	1	UNK0	0.000	
21	  N1	-6.300	209.340	112.440	N.3	1	UNK0	0.000	
22	  N2	-12.640	207.740	113.510	N.pl3	1	UNK0	0.000	
23	  N3	-13.820	203.780	115.920	N.pl3	1	UNK0	0.000	
24	  C7	-13.740	204.530	114.770	C.2	1	UNK0	0.000	
25	  N4	-14.260	203.970	113.670	N.2	1	UNK0	0.000	
26	  C8	-14.260	204.770	112.570	C.2	1	UNK0	0.000	
27	  N5	-13.750	206.020	112.490	N.2	1	UNK0	0.000	
28	  C9	-13.180	205.790	114.820	C.2	1	UNK0	0.000	
29	 C10	-13.200	206.490	113.630	C.2	1	UNK0	0.000	
@<TRIPOS>BOND
1 12 13 2
2 12 15 1
3 12 22 1
4 5 13 1
5 13 14 1
6 4 14 1
7 14 17 2
8 8 15 1
9 15 16 2
10 7 16 1
11 16 17 1
12 17 18 1
13 18 19 2
14 18 20 2
15 18 21 1
16 3 21 1
17 10 21 1
18 1 22 1
19 22 29 1
20 2 23 1
21 11 23 1
22 23 24 1
23 24 25 1
24 24 28 2
25 25 26 2
26 9 26 1
27 26 27 1
28 27 29 2
29 6 28 1
30 28 29 1
@<TRIPOS>SUBSTRUCTURE
1	UNK0	1	GROUP	1 ****	UNK
