# created with PyMOL 2.5.0
@<TRIPOS>MOLECULE
cocrystal/docking_cocrystal/1jsv_U55_LIG.pdb
29 30 1                 
SMALL
USER_CHARGES
@<TRIPOS>ATOM
1	 H07	-11.200	205.950	110.360	 H	1	UNK0	0.000	
2	 H09	-14.920	208.790	109.270	 H	1	UNK0	0.000	
3	 H06	-4.420	207.940	113.290	 H	1	UNK0	0.000	
4	 H02	-6.850	207.120	111.290	 H	1	UNK0	0.000	
5	 H01	-8.930	206.200	110.290	 H	1	UNK0	0.000	
6	 H11	-12.880	207.350	109.630	 H	1	UNK0	0.000	
7	 H04	-9.030	207.910	114.960	 H	1	UNK0	0.000	
8	 H03	-11.070	207.040	113.910	 H	1	UNK0	0.000	
9	 H10	-14.920	206.590	113.970	 H	1	UNK0	0.000	
10	 H05	-5.070	209.410	112.730	 H	1	UNK0	0.000	
11	 H08	-16.170	208.520	110.390	 H	1	UNK0	0.000	
12	  C1	-10.150	206.600	112.000	C.2	1	UNK0	0.000	
13	  C2	-8.950	206.600	111.310	C.2	1	UNK0	0.000	
14	  C3	-7.770	207.090	111.860	C.2	1	UNK0	0.000	
15	  C4	-10.150	207.060	113.330	C.2	1	UNK0	0.000	
16	  C5	-8.990	207.550	113.930	C.2	1	UNK0	0.000	
17	  C6	-7.800	207.570	113.190	C.2	1	UNK0	0.000	
18	  S1	-6.320	208.280	113.990	S.o2	1	UNK0	0.000	
19	  O1	-5.730	207.310	114.880	O.2	1	UNK0	0.000	
20	  O2	-6.580	209.650	114.360	O.2	1	UNK0	0.000	
21	  N1	-5.210	208.390	112.830	N.3	1	UNK0	0.000	
22	  N2	-11.310	206.130	111.360	N.pl3	1	UNK0	0.000	
23	  N3	-15.370	208.130	109.910	N.pl3	1	UNK0	0.000	
24	  C7	-14.570	207.670	110.910	C.2	1	UNK0	0.000	
25	  N4	-15.170	207.490	112.090	N.2	1	UNK0	0.000	
26	  C8	-14.450	206.800	113.010	C.2	1	UNK0	0.000	
27	  N5	-13.190	206.310	112.830	N.2	1	UNK0	0.000	
28	  C9	-13.300	207.200	110.610	C.2	1	UNK0	0.000	
29	 C10	-12.630	206.540	111.630	C.2	1	UNK0	0.000	
@<TRIPOS>BOND
1 12 13 2
2 12 15 1
3 12 22 1
4 5 13 1
5 13 14 1
6 4 14 1
7 14 17 2
8 8 15 1
9 15 16 2
10 7 16 1
11 16 17 1
12 17 18 1
13 18 19 2
14 18 20 2
15 18 21 1
16 3 21 1
17 10 21 1
18 1 22 1
19 22 29 1
20 2 23 1
21 11 23 1
22 23 24 1
23 24 25 1
24 24 28 2
25 25 26 2
26 9 26 1
27 26 27 1
28 27 29 2
29 6 28 1
30 28 29 1
@<TRIPOS>SUBSTRUCTURE
1	UNK0	1	GROUP	1 ****	UNK
