# created with PyMOL 2.5.0
@<TRIPOS>MOLECULE
cocrystal/docking_cocrystal/1jsv_U55_LIG.pdb
29 30 1                 
SMALL
USER_CHARGES
@<TRIPOS>ATOM
1	 H07	-11.580	205.200	113.050	 H	1	UNK0	0.000	
2	 H09	-16.060	206.360	114.150	 H	1	UNK0	0.000	
3	 H06	-5.090	208.240	114.410	 H	1	UNK0	0.000	
4	 H02	-9.010	209.900	113.060	 H	1	UNK0	0.000	
5	 H01	-10.930	208.660	112.090	 H	1	UNK0	0.000	
6	 H11	-12.690	206.830	110.770	 H	1	UNK0	0.000	
7	 H04	-8.060	206.390	115.450	 H	1	UNK0	0.000	
8	 H03	-9.940	205.220	114.430	 H	1	UNK0	0.000	
9	 H10	-15.190	204.860	113.570	 H	1	UNK0	0.000	
10	 H05	-5.560	209.570	113.440	 H	1	UNK0	0.000	
11	 H08	-16.260	206.960	114.720	 H	1	UNK0	0.000	
12	  C1	-10.590	206.880	113.220	C.2	1	UNK0	0.000	
13	  C2	-10.320	208.200	112.850	C.2	1	UNK0	0.000	
14	  C3	-9.230	208.890	113.400	C.2	1	UNK0	0.000	
15	  C4	-9.760	206.250	114.160	C.2	1	UNK0	0.000	
16	  C5	-8.680	206.920	114.730	C.2	1	UNK0	0.000	
17	  C6	-8.400	208.230	114.320	C.2	1	UNK0	0.000	
18	  S1	-6.910	209.030	114.970	S.o2	1	UNK0	0.000	
19	  O1	-6.410	208.330	116.130	O.2	1	UNK0	0.000	
20	  O2	-7.030	210.470	114.920	O.2	1	UNK0	0.000	
21	  N1	-5.810	208.680	113.850	N.3	1	UNK0	0.000	
22	  N2	-11.540	206.090	112.570	N.pl3	1	UNK0	0.000	
23	  N3	-15.550	207.360	113.960	N.pl3	1	UNK0	0.000	
24	  C7	-15.050	207.200	112.450	C.2	1	UNK0	0.000	
25	  N4	-15.640	206.090	112.120	N.2	1	UNK0	0.000	
26	  C8	-14.850	205.100	112.580	C.2	1	UNK0	0.000	
27	  N5	-13.500	205.150	112.710	N.2	1	UNK0	0.000	
28	  C9	-13.550	207.250	111.740	C.2	1	UNK0	0.000	
29	 C10	-12.900	206.320	112.500	C.2	1	UNK0	0.000	
@<TRIPOS>BOND
1 12 13 2
2 12 15 1
3 12 22 1
4 5 13 1
5 13 14 1
6 4 14 1
7 14 17 2
8 8 15 1
9 15 16 2
10 7 16 1
11 16 17 1
12 17 18 1
13 18 19 2
14 18 20 2
15 18 21 1
16 3 21 1
17 10 21 1
18 1 22 1
19 22 29 1
20 2 23 1
21 11 23 1
22 23 24 1
23 24 25 1
24 24 28 2
25 25 26 2
26 9 26 1
27 26 27 1
28 27 29 2
29 6 28 1
30 28 29 1
@<TRIPOS>SUBSTRUCTURE
1	UNK0	1	GROUP	1 ****	UNK
