# created with PyMOL 2.5.0
@<TRIPOS>MOLECULE
cocrystal/docking_cocrystal/1jsv_U55_LIG.pdb
18 19 1                 
SMALL
USER_CHARGES
@<TRIPOS>ATOM
1	  C1	-23.645	219.346	123.035	C.2	1	UNK0	0.000	
2	  C2	-27.459	215.679	120.486	C.2	1	UNK0	0.000	
3	  C3	-31.751	214.202	118.305	C.2	1	UNK0	0.000	
4	  C4	-25.606	220.677	123.335	C.2	1	UNK0	0.000	
5	  C5	-23.267	214.855	122.506	C.2	1	UNK0	0.000	
6	  C6	-25.073	218.002	123.434	C.2	1	UNK0	0.000	
7	  S1	-12.958	196.185	125.935	S.o2	1	UNK0	0.000	
8	  O1	-14.325	205.736	126.267	O.2	1	UNK0	0.000	
9	  O2	-11.624	201.839	123.161	O.2	1	UNK0	0.000	
10	  N1	4.619	215.260	114.041	N.3	1	UNK0	0.000	
11	  N2	-24.193	210.508	118.544	N.pl3	1	UNK0	0.000	
12	  N3	-18.108	202.148	108.293	N.pl3	1	UNK0	0.000	
13	  C7	-7.549	201.029	111.096	C.2	1	UNK0	0.000	
14	  N4	-6.284	198.974	108.299	N.2	1	UNK0	0.000	
15	  C8	-3.757	204.391	113.201	C.2	1	UNK0	0.000	
16	  N5	-6.195	197.733	111.485	N.2	1	UNK0	0.000	
17	  C9	-4.713	202.111	110.229	C.2	1	UNK0	0.000	
18	 C10	-5.220	200.334	111.279	C.2	1	UNK0	0.000	
@<TRIPOS>BOND
1 1 2 2
2 1 4 1
3 1 11 1
4 2 3 1
5 3 6 2
6 4 5 2
7 5 6 1
8 6 7 1
9 7 8 2
10 7 9 2
11 7 10 1
12 11 18 1
13 12 13 1
14 13 14 1
15 13 17 2
16 14 15 2
17 15 16 1
18 16 18 2
19 17 18 1
@<TRIPOS>SUBSTRUCTURE
1	UNK0	1	GROUP	1 ****	UNK
