# created with PyMOL 2.5.0
@<TRIPOS>MOLECULE
cocrystal/docking_cocrystal/1jsv_U55_LIG.pdb
29 30 1                 
SMALL
USER_CHARGES
@<TRIPOS>ATOM
1	 H07	-13.900	204.310	111.170	 H	1	UNK0	0.000	
2	 H09	-18.690	207.030	112.380	 H	1	UNK0	0.000	
3	 H06	-8.250	209.460	110.670	 H	1	UNK0	0.000	
4	 H02	-10.610	207.340	109.640	 H	1	UNK0	0.000	
5	 H01	-12.520	205.820	109.450	 H	1	UNK0	0.000	
6	 H11	-16.090	207.110	112.040	 H	1	UNK0	0.000	
7	 H04	-12.000	208.470	113.600	 H	1	UNK0	0.000	
8	 H03	-13.840	206.860	113.400	 H	1	UNK0	0.000	
9	 H10	-17.100	202.530	113.220	 H	1	UNK0	0.000	
10	 H05	-9.420	210.590	110.590	 H	1	UNK0	0.000	
11	 H08	-19.170	206.060	113.630	 H	1	UNK0	0.000	
12	  C1	-13.300	206.220	111.410	C.2	1	UNK0	0.000	
13	  C2	-12.380	206.370	110.360	C.2	1	UNK0	0.000	
14	  C3	-11.300	207.250	110.470	C.2	1	UNK0	0.000	
15	  C4	-13.140	206.970	112.570	C.2	1	UNK0	0.000	
16	  C5	-12.090	207.880	112.700	C.2	1	UNK0	0.000	
17	  C6	-11.170	208.000	111.640	C.2	1	UNK0	0.000	
18	  S1	-9.840	209.190	111.860	S.o2	1	UNK0	0.000	
19	  O1	-8.720	208.580	112.530	O.2	1	UNK0	0.000	
20	  O2	-10.410	210.460	112.210	O.2	1	UNK0	0.000	
21	  N1	-9.240	209.580	110.440	N.3	1	UNK0	0.000	
22	  N2	-14.290	205.240	111.270	N.pl3	1	UNK0	0.000	
23	  N3	-18.420	206.640	113.280	N.pl3	1	UNK0	0.000	
24	  C7	-17.440	205.740	113.030	C.2	1	UNK0	0.000	
25	  N4	-17.740	204.500	113.410	N.2	1	UNK0	0.000	
26	  C8	-16.830	203.560	113.030	C.2	1	UNK0	0.000	
27	  N5	-15.660	203.780	112.380	N.2	1	UNK0	0.000	
28	  C9	-16.280	206.100	112.360	C.2	1	UNK0	0.000	
29	 C10	-15.410	205.060	112.050	C.2	1	UNK0	0.000	
@<TRIPOS>BOND
1 12 13 2
2 12 15 1
3 12 22 1
4 5 13 1
5 13 14 1
6 4 14 1
7 14 17 2
8 8 15 1
9 15 16 2
10 7 16 1
11 16 17 1
12 17 18 1
13 18 19 2
14 18 20 2
15 18 21 1
16 3 21 1
17 10 21 1
18 1 22 1
19 22 29 1
20 2 23 1
21 11 23 1
22 23 24 1
23 24 25 1
24 24 28 2
25 25 26 2
26 9 26 1
27 26 27 1
28 27 29 2
29 6 28 1
30 28 29 1
@<TRIPOS>SUBSTRUCTURE
1	UNK0	1	GROUP	1 ****	UNK
