# created with PyMOL 2.5.0
@<TRIPOS>MOLECULE
cocrystal/docking_cocrystal/1jsv_U55_LIG.pdb
29 30 1                 
SMALL
USER_CHARGES
@<TRIPOS>ATOM
1	 H07	-12.570	207.320	110.120	 H	1	UNK0	0.000	
2	 H09	-16.610	205.100	111.510	 H	1	UNK0	0.000	
3	 H06	-4.180	209.530	111.830	 H	1	UNK0	0.000	
4	 H02	-8.130	206.010	111.900	 H	1	UNK0	0.000	
5	 H01	-9.500	205.960	109.690	 H	1	UNK0	0.000	
6	 H11	-14.580	206.590	110.510	 H	1	UNK0	0.000	
7	 H04	-9.800	209.020	113.540	 H	1	UNK0	0.000	
8	 H03	-11.800	208.210	112.400	 H	1	UNK0	0.000	
9	 H10	-12.440	203.590	113.670	 H	1	UNK0	0.000	
10	 H05	-6.130	208.810	111.350	 H	1	UNK0	0.000	
11	 H08	-16.420	204.860	113.140	 H	1	UNK0	0.000	
12	  C1	-10.760	207.150	110.880	C.2	1	UNK0	0.000	
13	  C2	-9.520	206.710	110.470	C.2	1	UNK0	0.000	
14	  C3	-8.420	206.900	111.310	C.2	1	UNK0	0.000	
15	  C4	-10.830	207.980	111.990	C.2	1	UNK0	0.000	
16	  C5	-9.690	208.400	112.660	C.2	1	UNK0	0.000	
17	  C6	-8.440	207.870	112.310	C.2	1	UNK0	0.000	
18	  S1	-7.040	208.220	113.470	S.o2	1	UNK0	0.000	
19	  O1	-7.420	206.810	113.630	O.2	1	UNK0	0.000	
20	  O2	-6.030	207.540	114.250	O.2	1	UNK0	0.000	
21	  N1	-5.880	209.150	112.090	N.3	1	UNK0	0.000	
22	  N2	-11.940	206.560	110.380	N.pl3	1	UNK0	0.000	
23	  N3	-16.150	205.460	112.350	N.pl3	1	UNK0	0.000	
24	  C7	-14.800	205.260	112.190	C.2	1	UNK0	0.000	
25	  N4	-14.260	204.420	113.080	N.2	1	UNK0	0.000	
26	  C8	-12.920	204.270	112.960	C.2	1	UNK0	0.000	
27	  N5	-12.110	204.880	112.080	N.2	1	UNK0	0.000	
28	  C9	-14.090	205.910	111.200	C.2	1	UNK0	0.000	
29	 C10	-12.710	205.750	111.210	C.2	1	UNK0	0.000	
@<TRIPOS>BOND
1 12 13 2
2 12 15 1
3 12 22 1
4 5 13 1
5 13 14 1
6 4 14 1
7 14 17 2
8 8 15 1
9 15 16 2
10 7 16 1
11 16 17 1
12 17 18 1
13 18 19 2
14 18 20 2
15 18 21 1
16 3 21 1
17 10 21 1
18 1 22 1
19 22 29 1
20 2 23 1
21 11 23 1
22 23 24 1
23 24 25 1
24 24 28 2
25 25 26 2
26 9 26 1
27 26 27 1
28 27 29 2
29 6 28 1
30 28 29 1
@<TRIPOS>SUBSTRUCTURE
1	UNK0	1	GROUP	1 ****	UNK
