# created with PyMOL 2.5.0
@<TRIPOS>MOLECULE
cocrystal/docking_cocrystal/1jsv_U55_LIG.pdb
18 19 1                 
SMALL
USER_CHARGES
@<TRIPOS>ATOM
1	  C1	-10.951	206.611	112.396	C.2	1	UNK0	0.000	
2	  C2	-9.783	207.129	111.817	C.2	1	UNK0	0.000	
3	  C3	-8.728	207.597	112.601	C.2	1	UNK0	0.000	
4	  C4	-11.043	206.569	113.799	C.2	1	UNK0	0.000	
5	  C5	-9.988	207.006	114.611	C.2	1	UNK0	0.000	
6	  C6	-8.831	207.535	113.993	C.2	1	UNK0	0.000	
7	  S1	-7.439	208.130	115.014	S.o2	1	UNK0	0.000	
8	  O1	-7.331	207.345	116.217	O.2	1	UNK0	0.000	
9	  O2	-7.371	209.562	114.996	O.2	1	UNK0	0.000	
10	  N1	-6.144	207.657	114.187	N.3	1	UNK0	0.000	
11	  N2	-11.958	206.207	111.514	N.pl3	1	UNK0	0.000	
12	  N3	-16.491	206.535	113.223	N.pl3	1	UNK0	0.000	
13	  C7	-15.474	205.999	112.501	C.2	1	UNK0	0.000	
14	  N4	-15.891	204.975	111.745	N.2	1	UNK0	0.000	
15	  C8	-14.924	204.401	110.992	C.2	1	UNK0	0.000	
16	  N5	-13.623	204.765	110.924	N.2	1	UNK0	0.000	
17	  C9	-14.148	206.425	112.604	C.2	1	UNK0	0.000	
18	 C10	-13.265	205.787	111.741	C.2	1	UNK0	0.000	
@<TRIPOS>BOND
1 1 2 2
2 1 4 1
3 1 11 1
4 2 3 1
5 3 6 2
6 4 5 2
7 5 6 1
8 6 7 1
9 7 8 2
10 7 9 2
11 7 10 1
12 11 18 1
13 12 13 1
14 13 14 1
15 13 17 2
16 14 15 2
17 15 16 1
18 16 18 2
19 17 18 1
@<TRIPOS>SUBSTRUCTURE
1	UNK0	1	GROUP	1 ****	UNK
