# created with PyMOL 2.5.0
@<TRIPOS>MOLECULE
cocrystal/docking_cocrystal/1jsv_U55_LIG.pdb
29 30 1                 
SMALL
USER_CHARGES
@<TRIPOS>ATOM
1	 H07	-13.650	206.320	109.580	 H	1	UNK0	0.000	
2	 H09	-18.240	206.420	111.630	 H	1	UNK0	0.000	
3	 H06	-6.500	208.670	111.490	 H	1	UNK0	0.000	
4	 H02	-9.080	207.150	109.780	 H	1	UNK0	0.000	
5	 H01	-11.350	206.560	109.040	 H	1	UNK0	0.000	
6	 H11	-15.830	207.140	111.040	 H	1	UNK0	0.000	
7	 H04	-10.400	206.890	113.910	 H	1	UNK0	0.000	
8	 H03	-12.630	206.230	113.110	 H	1	UNK0	0.000	
9	 H10	-15.020	202.780	112.990	 H	1	UNK0	0.000	
10	 H05	-7.600	208.050	110.480	 H	1	UNK0	0.000	
11	 H08	-18.380	205.460	112.980	 H	1	UNK0	0.000	
12	  C1	-12.150	206.400	111.020	C.2	1	UNK0	0.000	
13	  C2	-11.130	206.640	110.100	C.2	1	UNK0	0.000	
14	  C3	-9.840	206.980	110.520	C.2	1	UNK0	0.000	
15	  C4	-11.850	206.440	112.390	C.2	1	UNK0	0.000	
16	  C5	-10.580	206.820	112.840	C.2	1	UNK0	0.000	
17	  C6	-9.590	207.130	111.900	C.2	1	UNK0	0.000	
18	  S1	-7.980	207.700	112.550	S.o2	1	UNK0	0.000	
19	  O1	-7.450	206.680	113.420	O.2	1	UNK0	0.000	
20	  O2	-8.140	209.070	112.950	O.2	1	UNK0	0.000	
21	  N1	-6.990	207.800	111.270	N.3	1	UNK0	0.000	
22	  N2	-13.440	206.100	110.550	N.pl3	1	UNK0	0.000	
23	  N3	-17.800	206.150	112.510	N.pl3	1	UNK0	0.000	
24	  C7	-16.610	205.520	112.220	C.2	1	UNK0	0.000	
25	  N4	-16.420	204.330	112.810	N.2	1	UNK0	0.000	
26	  C8	-15.210	203.760	112.550	C.2	1	UNK0	0.000	
27	  N5	-14.210	204.270	111.810	N.2	1	UNK0	0.000	
28	  C9	-15.670	206.150	111.430	C.2	1	UNK0	0.000	
29	 C10	-14.460	205.480	111.260	C.2	1	UNK0	0.000	
@<TRIPOS>BOND
1 12 13 2
2 12 15 1
3 12 22 1
4 5 13 1
5 13 14 1
6 4 14 1
7 14 17 2
8 8 15 1
9 15 16 2
10 7 16 1
11 16 17 1
12 17 18 1
13 18 19 2
14 18 20 2
15 18 21 1
16 3 21 1
17 10 21 1
18 1 22 1
19 22 29 1
20 2 23 1
21 11 23 1
22 23 24 1
23 24 25 1
24 24 28 2
25 25 26 2
26 9 26 1
27 26 27 1
28 27 29 2
29 6 28 1
30 28 29 1
@<TRIPOS>SUBSTRUCTURE
1	UNK0	1	GROUP	1 ****	UNK
