# created with PyMOL 2.5.0
@<TRIPOS>MOLECULE
cocrystal/docking_cocrystal/1jsv_U55_LIG.pdb
29 30 1                 
SMALL
USER_CHARGES
@<TRIPOS>ATOM
1	 H07	-12.200	206.960	112.780	 H	1	UNK0	0.000	
2	 H09	-16.750	206.170	112.380	 H	1	UNK0	0.000	
3	 H06	-5.050	207.930	115.250	 H	1	UNK0	0.000	
4	 H02	-8.080	208.580	113.520	 H	1	UNK0	0.000	
5	 H01	-10.140	207.810	112.480	 H	1	UNK0	0.000	
6	 H11	-14.200	206.140	112.060	 H	1	UNK0	0.000	
7	 H04	-9.050	206.300	117.080	 H	1	UNK0	0.000	
8	 H03	-11.110	205.530	116.000	 H	1	UNK0	0.000	
9	 H10	-14.650	204.180	116.480	 H	1	UNK0	0.000	
10	 H05	-5.630	209.490	115.140	 H	1	UNK0	0.000	
11	 H08	-17.410	204.870	113.190	 H	1	UNK0	0.000	
12	  C1	-10.830	206.650	114.170	C.2	1	UNK0	0.000	
13	  C2	-9.920	207.480	113.490	C.2	1	UNK0	0.000	
14	  C3	-8.740	207.930	114.080	C.2	1	UNK0	0.000	
15	  C4	-10.460	206.200	115.460	C.2	1	UNK0	0.000	
16	  C5	-9.280	206.650	116.070	C.2	1	UNK0	0.000	
17	  C6	-8.440	207.540	115.400	C.2	1	UNK0	0.000	
18	  S1	-6.900	208.100	116.220	S.o2	1	UNK0	0.000	
19	  O1	-6.280	206.940	116.800	O.2	1	UNK0	0.000	
20	  O2	-7.170	209.290	117.010	O.2	1	UNK0	0.000	
21	  N1	-5.880	208.490	115.040	N.3	1	UNK0	0.000	
22	  N2	-12.000	206.250	113.490	N.pl3	1	UNK0	0.000	
23	  N3	-16.580	205.210	112.690	N.pl3	1	UNK0	0.000	
24	  C7	-15.480	205.190	113.480	C.2	1	UNK0	0.000	
25	  N4	-15.640	204.610	114.690	N.2	1	UNK0	0.000	
26	  C8	-14.540	204.630	115.490	C.2	1	UNK0	0.000	
27	  N5	-13.340	205.170	115.180	N.2	1	UNK0	0.000	
28	  C9	-14.280	205.720	113.050	C.2	1	UNK0	0.000	
29	 C10	-13.210	205.720	113.940	C.2	1	UNK0	0.000	
@<TRIPOS>BOND
1 12 13 2
2 12 15 1
3 12 22 1
4 5 13 1
5 13 14 1
6 4 14 1
7 14 17 2
8 8 15 1
9 15 16 2
10 7 16 1
11 16 17 1
12 17 18 1
13 18 19 2
14 18 20 2
15 18 21 1
16 3 21 1
17 10 21 1
18 1 22 1
19 22 29 1
20 2 23 1
21 11 23 1
22 23 24 1
23 24 25 1
24 24 28 2
25 25 26 2
26 9 26 1
27 26 27 1
28 27 29 2
29 6 28 1
30 28 29 1
@<TRIPOS>SUBSTRUCTURE
1	UNK0	1	GROUP	1 ****	UNK
