# created with PyMOL 2.5.0
@<TRIPOS>MOLECULE
cocrystal/docking_cocrystal/1jsv_U55_LIG.pdb
18 19 1                 
SMALL
USER_CHARGES
@<TRIPOS>ATOM
1	  C1	-12.907	206.030	110.985	C.2	1	UNK0	0.000	
2	  C2	-12.234	206.836	110.063	C.2	1	UNK0	0.000	
3	  C3	-11.112	207.578	110.444	C.2	1	UNK0	0.000	
4	  C4	-12.428	205.955	112.306	C.2	1	UNK0	0.000	
5	  C5	-11.306	206.686	112.706	C.2	1	UNK0	0.000	
6	  C6	-10.643	207.493	111.765	C.2	1	UNK0	0.000	
7	  S1	-9.221	208.502	112.250	S.o2	1	UNK0	0.000	
8	  O1	-8.750	208.088	113.550	O.2	1	UNK0	0.000	
9	  O2	-9.442	209.885	111.892	O.2	1	UNK0	0.000	
10	  N1	-8.052	207.992	111.275	N.3	1	UNK0	0.000	
11	  N2	-13.910	205.162	110.518	N.pl3	1	UNK0	0.000	
12	  N3	-18.428	206.200	111.721	N.pl3	1	UNK0	0.000	
13	  C7	-17.304	205.433	111.778	C.2	1	UNK0	0.000	
14	  N4	-17.459	204.259	112.399	N.2	1	UNK0	0.000	
15	  C8	-16.386	203.436	112.324	C.2	1	UNK0	0.000	
16	  N5	-15.196	203.692	111.746	N.2	1	UNK0	0.000	
17	  C9	-16.114	205.848	111.205	C.2	1	UNK0	0.000	
18	 C10	-15.079	204.912	111.197	C.2	1	UNK0	0.000	
@<TRIPOS>BOND
1 1 2 2
2 1 4 1
3 1 11 1
4 2 3 1
5 3 6 2
6 4 5 2
7 5 6 1
8 6 7 1
9 7 8 2
10 7 9 2
11 7 10 1
12 11 18 1
13 12 13 1
14 13 14 1
15 13 17 2
16 14 15 2
17 15 16 1
18 16 18 2
19 17 18 1
@<TRIPOS>SUBSTRUCTURE
1	UNK0	1	GROUP	1 ****	UNK
