# created with PyMOL 2.5.0
@<TRIPOS>MOLECULE
cocrystal/docking_cocrystal/1jsv_U55_LIG.pdb
18 19 1                 
SMALL
USER_CHARGES
@<TRIPOS>ATOM
1	  C1	-11.508	206.880	110.746	C.2	1	UNK0	0.000	
2	  C2	-10.279	206.432	110.311	C.2	1	UNK0	0.000	
3	  C3	-9.176	206.543	111.160	C.2	1	UNK0	0.000	
4	  C4	-11.557	207.645	111.903	C.2	1	UNK0	0.000	
5	  C5	-10.407	207.995	112.596	C.2	1	UNK0	0.000	
6	  C6	-9.171	207.453	112.215	C.2	1	UNK0	0.000	
7	  S1	-7.764	207.697	113.393	S.o2	1	UNK0	0.000	
8	  O1	-8.181	206.291	113.471	O.2	1	UNK0	0.000	
9	  O2	-6.773	206.946	114.132	O.2	1	UNK0	0.000	
10	  N1	-6.577	208.675	112.069	N.3	1	UNK0	0.000	
11	  N2	-12.702	206.352	110.213	N.pl3	1	UNK0	0.000	
12	  N3	-16.943	205.252	112.116	N.pl3	1	UNK0	0.000	
13	  C7	-15.598	205.025	111.944	C.2	1	UNK0	0.000	
14	  N4	-15.082	204.121	112.784	N.2	1	UNK0	0.000	
15	  C8	-13.746	203.942	112.655	C.2	1	UNK0	0.000	
16	  N5	-12.919	204.581	111.812	N.2	1	UNK0	0.000	
17	  C9	-14.870	205.713	110.994	C.2	1	UNK0	0.000	
18	 C10	-13.495	205.516	110.994	C.2	1	UNK0	0.000	
@<TRIPOS>BOND
1 1 2 2
2 1 4 1
3 1 11 1
4 2 3 1
5 3 6 2
6 4 5 2
7 5 6 1
8 6 7 1
9 7 8 2
10 7 9 2
11 7 10 1
12 11 18 1
13 12 13 1
14 13 14 1
15 13 17 2
16 14 15 2
17 15 16 1
18 16 18 2
19 17 18 1
@<TRIPOS>SUBSTRUCTURE
1	UNK0	1	GROUP	1 ****	UNK
