# created with PyMOL 2.5.0
@<TRIPOS>MOLECULE
cocrystal/docking_cocrystal/1jsv_U55_LIG.pdb
18 19 1                 
SMALL
USER_CHARGES
@<TRIPOS>ATOM
1	  C1	-12.226	206.234	111.229	C.2	1	UNK0	0.000	
2	  C2	-11.230	206.522	110.297	C.2	1	UNK0	0.000	
3	  C3	-9.937	206.869	110.702	C.2	1	UNK0	0.000	
4	  C4	-11.898	206.232	112.593	C.2	1	UNK0	0.000	
5	  C5	-10.625	206.617	113.030	C.2	1	UNK0	0.000	
6	  C6	-9.660	206.976	112.081	C.2	1	UNK0	0.000	
7	  S1	-8.046	207.550	112.717	S.o2	1	UNK0	0.000	
8	  O1	-7.482	206.510	113.540	O.2	1	UNK0	0.000	
9	  O2	-8.220	208.902	113.168	O.2	1	UNK0	0.000	
10	  N1	-7.085	207.710	111.422	N.3	1	UNK0	0.000	
11	  N2	-13.521	205.929	110.775	N.pl3	1	UNK0	0.000	
12	  N3	-17.839	205.839	112.825	N.pl3	1	UNK0	0.000	
13	  C7	-16.646	205.239	112.489	C.2	1	UNK0	0.000	
14	  N4	-16.424	204.033	113.033	N.2	1	UNK0	0.000	
15	  C8	-15.211	203.492	112.729	C.2	1	UNK0	0.000	
16	  N5	-14.235	204.044	111.986	N.2	1	UNK0	0.000	
17	  C9	-15.733	205.911	111.702	C.2	1	UNK0	0.000	
18	 C10	-14.516	205.268	111.484	C.2	1	UNK0	0.000	
@<TRIPOS>BOND
1 1 2 2
2 1 4 1
3 1 11 1
4 2 3 1
5 3 6 2
6 4 5 2
7 5 6 1
8 6 7 1
9 7 8 2
10 7 9 2
11 7 10 1
12 11 18 1
13 12 13 1
14 13 14 1
15 13 17 2
16 14 15 2
17 15 16 1
18 16 18 2
19 17 18 1
@<TRIPOS>SUBSTRUCTURE
1	UNK0	1	GROUP	1 ****	UNK
