# created with PyMOL 2.5.0
@<TRIPOS>MOLECULE
cocrystal/docking_cocrystal/1jsv_U55_LIG.pdb
18 19 1                 
SMALL
USER_CHARGES
@<TRIPOS>ATOM
1	  C1	-11.117	206.111	112.935	C.2	1	UNK0	0.000	
2	  C2	-10.860	207.453	112.645	C.2	1	UNK0	0.000	
3	  C3	-9.780	208.121	113.240	C.2	1	UNK0	0.000	
4	  C4	-10.284	205.434	113.839	C.2	1	UNK0	0.000	
5	  C5	-9.213	206.081	114.453	C.2	1	UNK0	0.000	
6	  C6	-8.946	207.416	114.123	C.2	1	UNK0	0.000	
7	  S1	-7.467	208.191	114.826	S.o2	1	UNK0	0.000	
8	  O1	-6.964	207.429	115.945	O.2	1	UNK0	0.000	
9	  O2	-7.603	209.630	114.862	O.2	1	UNK0	0.000	
10	  N1	-6.359	207.920	113.692	N.3	1	UNK0	0.000	
11	  N2	-12.056	205.351	112.235	N.pl3	1	UNK0	0.000	
12	  N3	-16.085	206.493	113.680	N.pl3	1	UNK0	0.000	
13	  C7	-15.577	206.429	112.165	C.2	1	UNK0	0.000	
14	  N4	-16.154	205.334	111.767	N.2	1	UNK0	0.000	
15	  C8	-15.355	204.327	112.171	C.2	1	UNK0	0.000	
16	  N5	-14.006	204.383	112.310	N.2	1	UNK0	0.000	
17	  C9	-14.075	206.537	111.466	C.2	1	UNK0	0.000	
18	 C10	-13.418	205.570	112.172	C.2	1	UNK0	0.000	
@<TRIPOS>BOND
1 1 2 2
2 1 4 1
3 1 11 1
4 2 3 1
5 3 6 2
6 4 5 2
7 5 6 1
8 6 7 1
9 7 8 2
10 7 9 2
11 7 10 1
12 11 18 1
13 12 13 1
14 13 14 1
15 13 17 2
16 14 15 2
17 15 16 1
18 16 18 2
19 17 18 1
@<TRIPOS>SUBSTRUCTURE
1	UNK0	1	GROUP	1 ****	UNK
