# created with PyMOL 2.5.0
@<TRIPOS>MOLECULE
cocrystal/docking_cocrystal/1jsv_U55_LIG.pdb
18 19 1                 
SMALL
USER_CHARGES
@<TRIPOS>ATOM
1	  C1	-11.152	206.398	113.579	C.2	1	UNK0	0.000	
2	  C2	-10.268	207.209	112.845	C.2	1	UNK0	0.000	
3	  C3	-9.039	207.624	113.357	C.2	1	UNK0	0.000	
4	  C4	-10.708	205.927	114.838	C.2	1	UNK0	0.000	
5	  C5	-9.478	206.342	115.370	C.2	1	UNK0	0.000	
6	  C6	-8.662	207.215	114.651	C.2	1	UNK0	0.000	
7	  S1	-7.056	207.728	115.370	S.o2	1	UNK0	0.000	
8	  O1	-6.429	206.548	115.899	O.2	1	UNK0	0.000	
9	  O2	-7.241	208.918	116.184	O.2	1	UNK0	0.000	
10	  N1	-6.108	208.101	114.126	N.3	1	UNK0	0.000	
11	  N2	-12.375	206.034	112.977	N.pl3	1	UNK0	0.000	
12	  N3	-17.024	205.119	112.480	N.pl3	1	UNK0	0.000	
13	  C7	-15.874	205.064	113.194	C.2	1	UNK0	0.000	
14	  N4	-15.968	204.479	114.408	N.2	1	UNK0	0.000	
15	  C8	-14.817	204.463	115.132	C.2	1	UNK0	0.000	
16	  N5	-13.626	204.975	114.746	N.2	1	UNK0	0.000	
17	  C9	-14.692	205.567	112.687	C.2	1	UNK0	0.000	
18	 C10	-13.565	205.531	113.504	C.2	1	UNK0	0.000	
@<TRIPOS>BOND
1 1 2 2
2 1 4 1
3 1 11 1
4 2 3 1
5 3 6 2
6 4 5 2
7 5 6 1
8 6 7 1
9 7 8 2
10 7 9 2
11 7 10 1
12 11 18 1
13 12 13 1
14 13 14 1
15 13 17 2
16 14 15 2
17 15 16 1
18 16 18 2
19 17 18 1
@<TRIPOS>SUBSTRUCTURE
1	UNK0	1	GROUP	1 ****	UNK
