# created with PyMOL 2.5.0
@<TRIPOS>MOLECULE
cocrystal/docking_cocrystal/1jsv_U55_LIG.pdb
18 19 1                 
SMALL
USER_CHARGES
@<TRIPOS>ATOM
1	  C1	-9.655	207.768	114.492	C.2	1	UNK0	0.000	
2	  C2	-8.741	208.251	113.552	C.2	1	UNK0	0.000	
3	  C3	-7.604	208.971	113.932	C.2	1	UNK0	0.000	
4	  C4	-9.443	208.071	115.847	C.2	1	UNK0	0.000	
5	  C5	-8.297	208.768	116.256	C.2	1	UNK0	0.000	
6	  C6	-7.382	209.223	115.294	C.2	1	UNK0	0.000	
7	  S1	-5.901	210.133	115.829	S.o2	1	UNK0	0.000	
8	  O1	-5.352	209.616	117.056	O.2	1	UNK0	0.000	
9	  O2	-5.987	211.536	115.469	O.2	1	UNK0	0.000	
10	  N1	-4.770	209.620	114.824	N.3	1	UNK0	0.000	
11	  N2	-10.808	207.109	113.986	N.pl3	1	UNK0	0.000	
12	  N3	-14.849	204.610	113.654	N.pl3	1	UNK0	0.000	
13	  C7	-13.842	205.148	114.408	C.2	1	UNK0	0.000	
14	  N4	-13.897	204.911	115.712	N.2	1	UNK0	0.000	
15	  C8	-12.878	205.431	116.444	C.2	1	UNK0	0.000	
16	  N5	-11.838	206.149	115.958	N.2	1	UNK0	0.000	
17	  C9	-12.818	205.856	113.800	C.2	1	UNK0	0.000	
18	 C10	-11.803	206.358	114.621	C.2	1	UNK0	0.000	
@<TRIPOS>BOND
1 1 2 2
2 1 4 1
3 1 11 1
4 2 3 1
5 3 6 2
6 4 5 2
7 5 6 1
8 6 7 1
9 7 8 2
10 7 9 2
11 7 10 1
12 11 18 1
13 12 13 1
14 13 14 1
15 13 17 2
16 14 15 2
17 15 16 1
18 16 18 2
19 17 18 1
@<TRIPOS>SUBSTRUCTURE
1	UNK0	1	GROUP	1 ****	UNK
