# created with PyMOL 2.5.0
@<TRIPOS>MOLECULE
ZINC00538264
62 66 1                 
SMALL
USER_CHARGES
@<TRIPOS>ATOM
1	 H12	9.320	-5.750	13.180	 H	1	UNK0	0.000	
2	 H15	2.560	-0.370	17.380	 H	1	UNK0	0.000	
3	 H16	4.770	-1.460	17.550	 H	1	UNK0	0.000	
4	 H05	11.820	-4.450	15.500	 H	1	UNK0	0.000	
5	 H04	11.470	-2.110	16.050	 H	1	UNK0	0.000	
6	 H03	10.720	-3.270	17.300	 H	1	UNK0	0.000	
7	 H02	11.200	-1.010	18.090	 H	1	UNK0	0.000	
8	 H01	10.730	0.940	19.510	 H	1	UNK0	0.000	
9	 H13	6.310	1.200	14.540	 H	1	UNK0	0.000	
10	 H08	5.370	-1.700	14.510	 H	1	UNK0	0.000	
11	 H11	10.940	-5.930	13.820	 H	1	UNK0	0.000	
12	 H10	5.900	-3.380	14.780	 H	1	UNK0	0.000	
13	 H21	4.850	0.530	22.310	 H	1	UNK0	0.000	
14	 H09	6.620	-2.420	13.460	 H	1	UNK0	0.000	
15	 H07	6.780	1.270	17.850	 H	1	UNK0	0.000	
16	 H06	7.850	-4.000	13.920	 H	1	UNK0	0.000	
17	 H14	4.090	2.270	14.360	 H	1	UNK0	0.000	
18	 H17	1.810	2.400	15.130	 H	1	UNK0	0.000	
19	 H20	3.360	1.260	21.650	 H	1	UNK0	0.000	
20	 H19	9.250	2.880	19.920	 H	1	UNK0	0.000	
21	 H18	1.180	1.320	16.350	 H	1	UNK0	0.000	
22	 H29	3.840	5.440	19.320	 H	1	UNK0	0.000	
23	 H24	6.900	1.010	21.270	 H	1	UNK0	0.000	
24	 H23	4.610	1.690	21.850	 H	1	UNK0	0.000	
25	 H22	4.210	2.040	23.010	 H	1	UNK0	0.000	
26	 H25	2.600	2.900	20.710	 H	1	UNK0	0.000	
27	 H28	5.320	5.730	18.430	 H	1	UNK0	0.000	
28	 H27	2.970	4.560	20.180	 H	1	UNK0	0.000	
29	 H26	3.220	4.100	21.880	 H	1	UNK0	0.000	
30	  C1	8.730	1.210	18.760	C.2	1	UNK0	0.000	
31	  C2	9.960	0.570	18.820	C.2	1	UNK0	0.000	
32	  C3	10.230	-0.510	18.040	C.2	1	UNK0	0.000	
33	  C4	9.250	-0.980	17.160	C.2	1	UNK0	0.000	
34	  C5	9.480	-2.140	16.290	C.2	1	UNK0	0.000	
35	  C6	10.690	-2.840	16.300	C.3	1	UNK0	0.000	
36	  C7	10.870	-3.910	15.480	C.2	1	UNK0	0.000	
37	  C8	9.850	-4.330	14.620	C.2	1	UNK0	0.000	
38	  C9	8.640	-3.670	14.590	C.2	1	UNK0	0.000	
39	 C10	8.430	-2.560	15.420	C.2	1	UNK0	0.000	
40	  N1	7.260	-1.910	15.390	N.pl3	1	UNK0	0.000	
41	 C11	7.000	-0.860	16.150	C.2	1	UNK0	0.000	
42	 C12	8.000	-0.340	17.080	C.2	1	UNK0	0.000	
43	 C13	7.740	0.770	17.890	C.2	1	UNK0	0.000	
44	 C14	6.220	-2.380	14.480	C.3	1	UNK0	0.000	
45	  N2	10.060	-5.440	13.800	N.pl3	1	UNK0	0.000	
46	 C15	5.670	-0.210	16.050	C.2	1	UNK0	0.000	
47	 C16	5.480	0.850	15.160	C.2	1	UNK0	0.000	
48	 C17	4.240	1.450	15.070	C.2	1	UNK0	0.000	
49	 C18	3.190	1.020	15.870	C.2	1	UNK0	0.000	
50	 C19	3.380	-0.030	16.760	C.2	1	UNK0	0.000	
51	 C20	4.620	-0.640	16.850	C.2	1	UNK0	0.000	
52	  N3	1.950	1.630	15.770	N.pl3	1	UNK0	0.000	
53	  N4	8.480	2.320	19.570	N.pl3	1	UNK0	0.000	
54	 C21	4.340	1.470	22.090	C.3	1	UNK0	0.000	
55	 C22	5.160	2.270	21.110	C.3	1	UNK0	0.000	
56	 C23	6.450	1.890	20.810	C.2	1	UNK0	0.000	
57	 C24	7.180	2.660	19.900	C.2	1	UNK0	0.000	
58	  N5	6.600	3.730	19.360	N.2	1	UNK0	0.000	
59	 C25	5.360	4.060	19.670	C.2	1	UNK0	0.000	
60	  N6	4.640	3.350	20.530	N.pl3	1	UNK0	0.000	
61	 C26	3.270	3.750	20.850	C.3	1	UNK0	0.000	
62	  N7	4.790	5.180	19.090	N.pl3	1	UNK0	0.000	
@<TRIPOS>BOND
1 30 31 1
2 30 43 2
3 30 53 1
4 8 31 1
5 31 32 2
6 7 32 1
7 32 33 1
8 33 34 2
9 33 42 1
10 34 35 1
11 34 39 1
12 5 35 1
13 6 35 1
14 35 36 1
15 4 36 1
16 36 37 2
17 37 38 1
18 37 45 1
19 16 38 1
20 38 39 2
21 39 40 1
22 40 41 1
23 40 44 1
24 41 42 2
25 41 46 1
26 42 43 1
27 15 43 1
28 10 44 1
29 12 44 1
30 14 44 1
31 1 45 1
32 11 45 1
33 46 47 2
34 46 51 1
35 9 47 1
36 47 48 1
37 17 48 1
38 48 49 2
39 49 50 1
40 49 52 1
41 2 50 1
42 50 51 2
43 3 51 1
44 18 52 1
45 21 52 1
46 20 53 1
47 53 57 1
48 13 54 1
49 19 54 1
50 25 54 1
51 54 55 1
52 24 55 1
53 55 56 1
54 55 60 1
55 23 56 1
56 56 57 2
57 57 58 1
58 58 59 2
59 59 60 1
60 59 62 1
61 60 61 1
62 26 61 1
63 28 61 1
64 29 61 1
65 22 62 1
66 27 62 1
@<TRIPOS>SUBSTRUCTURE
1	UNK0	1	GROUP	1 ****	UNK
