# created with PyMOL 2.5.0
@<TRIPOS>MOLECULE
ZINC00538264
62 66 1                 
SMALL
USER_CHARGES
@<TRIPOS>ATOM
1	 H12	14.890	-5.070	13.960	 H	1	UNK0	0.000	
2	 H15	4.190	-2.650	16.890	 H	1	UNK0	0.000	
3	 H16	6.450	-3.640	17.110	 H	1	UNK0	0.000	
4	 H05	14.920	-3.760	15.900	 H	1	UNK0	0.000	
5	 H04	13.480	-1.740	16.470	 H	1	UNK0	0.000	
6	 H03	13.280	-2.990	17.690	 H	1	UNK0	0.000	
7	 H02	12.430	-0.710	18.190	 H	1	UNK0	0.000	
8	 H01	10.970	0.860	19.500	 H	1	UNK0	0.000	
9	 H13	7.880	-0.990	14.050	 H	1	UNK0	0.000	
10	 H08	7.830	-4.520	14.380	 H	1	UNK0	0.000	
11	 H11	13.470	-5.670	13.240	 H	1	UNK0	0.000	
12	 H10	9.280	-5.470	14.370	 H	1	UNK0	0.000	
13	 H21	4.720	1.020	22.090	 H	1	UNK0	0.000	
14	 H09	9.140	-4.070	13.280	 H	1	UNK0	0.000	
15	 H07	7.410	-0.800	17.650	 H	1	UNK0	0.000	
16	 H06	11.310	-5.150	13.980	 H	1	UNK0	0.000	
17	 H14	5.610	-0.020	13.830	 H	1	UNK0	0.000	
18	 H17	3.310	-0.290	14.350	 H	1	UNK0	0.000	
19	 H20	3.780	2.490	22.360	 H	1	UNK0	0.000	
20	 H19	8.890	1.430	20.240	 H	1	UNK0	0.000	
21	 H18	2.760	-1.290	15.590	 H	1	UNK0	0.000	
22	 H29	3.350	1.660	17.660	 H	1	UNK0	0.000	
23	 H24	7.460	2.490	21.340	 H	1	UNK0	0.000	
24	 H23	5.280	3.770	20.860	 H	1	UNK0	0.000	
25	 H22	5.440	2.390	22.950	 H	1	UNK0	0.000	
26	 H25	2.540	1.590	20.450	 H	1	UNK0	0.000	
27	 H28	4.330	0.390	17.240	 H	1	UNK0	0.000	
28	 H27	2.430	2.690	19.050	 H	1	UNK0	0.000	
29	 H26	2.850	3.330	20.630	 H	1	UNK0	0.000	
30	  C1	9.070	0.110	18.720	C.2	1	UNK0	0.000	
31	  C2	10.520	0.110	18.870	C.2	1	UNK0	0.000	
32	  C3	11.350	-0.800	18.110	C.2	1	UNK0	0.000	
33	  C4	10.750	-1.760	17.190	C.2	1	UNK0	0.000	
34	  C5	11.570	-2.700	16.440	C.2	1	UNK0	0.000	
35	  C6	13.070	-2.730	16.650	C.3	1	UNK0	0.000	
36	  C7	13.850	-3.690	15.780	C.2	1	UNK0	0.000	
37	  C8	13.190	-4.540	14.850	C.2	1	UNK0	0.000	
38	  C9	11.770	-4.490	14.700	C.2	1	UNK0	0.000	
39	 C10	10.920	-3.600	15.480	C.2	1	UNK0	0.000	
40	  N1	9.530	-3.580	15.290	N.pl3	1	UNK0	0.000	
41	 C11	8.710	-2.650	15.980	C.2	1	UNK0	0.000	
42	 C12	9.290	-1.740	16.980	C.2	1	UNK0	0.000	
43	 C13	8.490	-0.800	17.760	C.2	1	UNK0	0.000	
44	 C14	8.910	-4.440	14.280	C.3	1	UNK0	0.000	
45	  N2	13.930	-5.400	14.090	N.pl3	1	UNK0	0.000	
46	 C15	7.320	-2.420	15.560	C.2	1	UNK0	0.000	
47	 C16	7.060	-1.400	14.620	C.2	1	UNK0	0.000	
48	 C17	5.780	-0.860	14.500	C.2	1	UNK0	0.000	
49	 C18	4.730	-1.360	15.260	C.2	1	UNK0	0.000	
50	 C19	4.980	-2.330	16.220	C.2	1	UNK0	0.000	
51	 C20	6.260	-2.890	16.340	C.2	1	UNK0	0.000	
52	  N3	3.510	-0.680	15.270	N.pl3	1	UNK0	0.000	
53	  N4	8.360	1.010	19.490	N.pl3	1	UNK0	0.000	
54	 C21	4.780	2.110	22.120	C.3	1	UNK0	0.000	
55	 C22	5.290	2.670	20.800	C.3	1	UNK0	0.000	
56	 C23	6.710	2.220	20.620	C.2	1	UNK0	0.000	
57	 C24	7.030	1.370	19.500	C.2	1	UNK0	0.000	
58	  N5	6.060	1.050	18.570	N.2	1	UNK0	0.000	
59	 C25	4.840	1.350	18.810	C.2	1	UNK0	0.000	
60	  N6	4.390	2.260	19.720	N.pl3	1	UNK0	0.000	
61	 C26	2.980	2.470	19.970	C.3	1	UNK0	0.000	
62	  N7	3.900	0.900	18.010	N.pl3	1	UNK0	0.000	
@<TRIPOS>BOND
1 30 31 1
2 30 43 2
3 30 53 1
4 8 31 1
5 31 32 2
6 7 32 1
7 32 33 1
8 33 34 2
9 33 42 1
10 34 35 1
11 34 39 1
12 5 35 1
13 6 35 1
14 35 36 1
15 4 36 1
16 36 37 2
17 37 38 1
18 37 45 1
19 16 38 1
20 38 39 2
21 39 40 1
22 40 41 1
23 40 44 1
24 41 42 2
25 41 46 1
26 42 43 1
27 15 43 1
28 10 44 1
29 12 44 1
30 14 44 1
31 1 45 1
32 11 45 1
33 46 47 2
34 46 51 1
35 9 47 1
36 47 48 1
37 17 48 1
38 48 49 2
39 49 50 1
40 49 52 1
41 2 50 1
42 50 51 2
43 3 51 1
44 18 52 1
45 21 52 1
46 20 53 1
47 53 57 1
48 13 54 1
49 19 54 1
50 25 54 1
51 54 55 1
52 24 55 1
53 55 56 1
54 55 60 1
55 23 56 1
56 56 57 2
57 57 58 1
58 58 59 2
59 59 60 1
60 59 62 1
61 60 61 1
62 26 61 1
63 28 61 1
64 29 61 1
65 22 62 1
66 27 62 1
@<TRIPOS>SUBSTRUCTURE
1	UNK0	1	GROUP	1 ****	UNK
