# created with PyMOL 2.5.0
@<TRIPOS>MOLECULE
ZINC00538264
62 66 1                 
SMALL
USER_CHARGES
@<TRIPOS>ATOM
1	 H12	12.650	-3.090	15.990	 H	1	UNK0	0.000	
2	 H15	3.180	-3.410	15.660	 H	1	UNK0	0.000	
3	 H16	5.340	-2.860	16.760	 H	1	UNK0	0.000	
4	 H05	12.810	-0.400	18.360	 H	1	UNK0	0.000	
5	 H04	10.960	1.320	18.170	 H	1	UNK0	0.000	
6	 H03	10.540	0.140	19.400	 H	1	UNK0	0.000	
7	 H02	9.270	2.370	19.070	 H	1	UNK0	0.000	
8	 H01	7.220	3.490	19.930	 H	1	UNK0	0.000	
9	 H13	5.490	0.830	14.540	 H	1	UNK0	0.000	
10	 H08	7.060	-2.180	14.250	 H	1	UNK0	0.000	
11	 H11	13.580	-2.250	17.170	 H	1	UNK0	0.000	
12	 H10	8.070	-3.260	15.220	 H	1	UNK0	0.000	
13	 H21	3.340	3.620	23.780	 H	1	UNK0	0.000	
14	 H09	8.790	-2.050	14.140	 H	1	UNK0	0.000	
15	 H07	4.700	0.800	17.600	 H	1	UNK0	0.000	
16	 H06	10.410	-2.500	15.450	 H	1	UNK0	0.000	
17	 H14	3.320	0.250	13.470	 H	1	UNK0	0.000	
18	 H17	1.400	-1.130	13.560	 H	1	UNK0	0.000	
19	 H20	4.400	4.560	24.830	 H	1	UNK0	0.000	
20	 H19	3.930	2.890	18.740	 H	1	UNK0	0.000	
21	 H18	1.340	-2.570	14.420	 H	1	UNK0	0.000	
22	 H29	3.080	6.740	19.840	 H	1	UNK0	0.000	
23	 H24	5.850	2.540	21.790	 H	1	UNK0	0.000	
24	 H23	6.120	4.670	23.050	 H	1	UNK0	0.000	
25	 H22	4.860	2.910	24.340	 H	1	UNK0	0.000	
26	 H25	3.920	7.460	23.290	 H	1	UNK0	0.000	
27	 H28	4.110	7.490	20.910	 H	1	UNK0	0.000	
28	 H27	5.530	7.400	22.530	 H	1	UNK0	0.000	
29	 H26	5.240	6.570	24.050	 H	1	UNK0	0.000	
30	  C1	5.780	2.130	18.960	C.2	1	UNK0	0.000	
31	  C2	7.110	2.600	19.320	C.2	1	UNK0	0.000	
32	  C3	8.300	1.940	18.830	C.2	1	UNK0	0.000	
33	  C4	8.190	0.790	17.950	C.2	1	UNK0	0.000	
34	  C5	9.370	0.010	17.620	C.2	1	UNK0	0.000	
35	  C6	10.680	0.280	18.320	C.3	1	UNK0	0.000	
36	  C7	11.850	-0.570	17.900	C.2	1	UNK0	0.000	
37	  C8	11.730	-1.530	16.860	C.2	1	UNK0	0.000	
38	  C9	10.460	-1.760	16.230	C.2	1	UNK0	0.000	
39	 C10	9.260	-1.040	16.590	C.2	1	UNK0	0.000	
40	  N1	8.030	-1.290	15.960	N.pl3	1	UNK0	0.000	
41	 C11	6.840	-0.640	16.380	C.2	1	UNK0	0.000	
42	 C12	6.880	0.410	17.410	C.2	1	UNK0	0.000	
43	 C13	5.680	1.100	17.940	C.2	1	UNK0	0.000	
44	 C14	7.980	-2.240	14.840	C.3	1	UNK0	0.000	
45	  N2	12.840	-2.210	16.470	N.pl3	1	UNK0	0.000	
46	 C15	5.540	-0.970	15.750	C.2	1	UNK0	0.000	
47	 C16	4.970	-0.090	14.820	C.2	1	UNK0	0.000	
48	 C17	3.750	-0.410	14.220	C.2	1	UNK0	0.000	
49	 C18	3.060	-1.560	14.580	C.2	1	UNK0	0.000	
50	 C19	3.660	-2.470	15.450	C.2	1	UNK0	0.000	
51	 C20	4.890	-2.170	16.060	C.2	1	UNK0	0.000	
52	  N3	1.920	-1.940	13.880	N.pl3	1	UNK0	0.000	
53	  N4	4.630	2.720	19.450	N.pl3	1	UNK0	0.000	
54	 C21	4.390	3.840	24.000	C.3	1	UNK0	0.000	
55	 C22	5.100	4.410	22.790	C.3	1	UNK0	0.000	
56	 C23	5.180	3.390	21.710	C.2	1	UNK0	0.000	
57	 C24	4.460	3.610	20.480	C.2	1	UNK0	0.000	
58	  N5	3.580	4.660	20.370	N.2	1	UNK0	0.000	
59	 C25	3.740	5.650	21.190	C.2	1	UNK0	0.000	
60	  N6	4.410	5.640	22.370	N.pl3	1	UNK0	0.000	
61	 C26	4.810	6.830	23.100	C.3	1	UNK0	0.000	
62	  N7	3.340	6.840	20.800	N.pl3	1	UNK0	0.000	
@<TRIPOS>BOND
1 30 31 1
2 30 43 2
3 30 53 1
4 8 31 1
5 31 32 2
6 7 32 1
7 32 33 1
8 33 34 2
9 33 42 1
10 34 35 1
11 34 39 1
12 5 35 1
13 6 35 1
14 35 36 1
15 4 36 1
16 36 37 2
17 37 38 1
18 37 45 1
19 16 38 1
20 38 39 2
21 39 40 1
22 40 41 1
23 40 44 1
24 41 42 2
25 41 46 1
26 42 43 1
27 15 43 1
28 10 44 1
29 12 44 1
30 14 44 1
31 1 45 1
32 11 45 1
33 46 47 2
34 46 51 1
35 9 47 1
36 47 48 1
37 17 48 1
38 48 49 2
39 49 50 1
40 49 52 1
41 2 50 1
42 50 51 2
43 3 51 1
44 18 52 1
45 21 52 1
46 20 53 1
47 53 57 1
48 13 54 1
49 19 54 1
50 25 54 1
51 54 55 1
52 24 55 1
53 55 56 1
54 55 60 1
55 23 56 1
56 56 57 2
57 57 58 1
58 58 59 2
59 59 60 1
60 59 62 1
61 60 61 1
62 26 61 1
63 28 61 1
64 29 61 1
65 22 62 1
66 27 62 1
@<TRIPOS>SUBSTRUCTURE
1	UNK0	1	GROUP	1 ****	UNK
