# created with PyMOL 2.5.0
@<TRIPOS>MOLECULE
ZINC00538264
62 66 1                 
SMALL
USER_CHARGES
@<TRIPOS>ATOM
1	 H12	13.070	-5.900	14.480	 H	1	UNK0	0.000	
2	 H15	4.420	-1.010	17.300	 H	1	UNK0	0.000	
3	 H16	6.640	-2.060	17.640	 H	1	UNK0	0.000	
4	 H05	14.730	-3.760	16.830	 H	1	UNK0	0.000	
5	 H04	13.650	-1.460	16.940	 H	1	UNK0	0.000	
6	 H03	13.160	-2.430	18.340	 H	1	UNK0	0.000	
7	 H02	12.610	-0.210	18.710	 H	1	UNK0	0.000	
8	 H01	11.340	1.680	19.750	 H	1	UNK0	0.000	
9	 H13	8.000	-0.350	13.950	 H	1	UNK0	0.000	
10	 H08	8.750	-4.630	15.190	 H	1	UNK0	0.000	
11	 H11	14.540	-5.420	15.200	 H	1	UNK0	0.000	
12	 H10	9.440	-3.740	13.820	 H	1	UNK0	0.000	
13	 H21	4.450	4.610	21.840	 H	1	UNK0	0.000	
14	 H09	7.860	-3.310	14.450	 H	1	UNK0	0.000	
15	 H07	7.860	0.770	17.310	 H	1	UNK0	0.000	
16	 H06	11.020	-4.870	14.910	 H	1	UNK0	0.000	
17	 H14	5.780	0.700	13.620	 H	1	UNK0	0.000	
18	 H17	3.500	0.710	14.300	 H	1	UNK0	0.000	
19	 H20	6.110	4.550	22.450	 H	1	UNK0	0.000	
20	 H19	9.460	2.940	19.890	 H	1	UNK0	0.000	
21	 H18	2.980	0.070	15.770	 H	1	UNK0	0.000	
22	 H29	4.060	3.110	17.310	 H	1	UNK0	0.000	
23	 H24	8.180	4.490	20.620	 H	1	UNK0	0.000	
24	 H23	6.000	5.610	20.190	 H	1	UNK0	0.000	
25	 H22	5.360	3.090	21.790	 H	1	UNK0	0.000	
26	 H25	3.100	3.790	20.040	 H	1	UNK0	0.000	
27	 H28	4.790	1.630	17.330	 H	1	UNK0	0.000	
28	 H27	3.180	4.580	18.440	 H	1	UNK0	0.000	
29	 H26	3.650	5.460	19.880	 H	1	UNK0	0.000	
30	  C1	9.490	1.370	18.620	C.2	1	UNK0	0.000	
31	  C2	10.860	1.070	19.000	C.2	1	UNK0	0.000	
32	  C3	11.590	-0.030	18.400	C.2	1	UNK0	0.000	
33	  C4	10.930	-0.910	17.440	C.2	1	UNK0	0.000	
34	  C5	11.610	-2.080	16.920	C.2	1	UNK0	0.000	
35	  C6	13.060	-2.330	17.250	C.3	1	UNK0	0.000	
36	  C7	13.690	-3.550	16.630	C.2	1	UNK0	0.000	
37	  C8	12.930	-4.450	15.830	C.2	1	UNK0	0.000	
38	  C9	11.550	-4.170	15.540	C.2	1	UNK0	0.000	
39	 C10	10.870	-3.000	16.040	C.2	1	UNK0	0.000	
40	  N1	9.530	-2.740	15.690	N.pl3	1	UNK0	0.000	
41	 C11	8.850	-1.600	16.170	C.2	1	UNK0	0.000	
42	 C12	9.530	-0.640	17.050	C.2	1	UNK0	0.000	
43	 C13	8.870	0.540	17.610	C.2	1	UNK0	0.000	
44	 C14	8.860	-3.640	14.740	C.3	1	UNK0	0.000	
45	  N2	13.540	-5.550	15.310	N.pl3	1	UNK0	0.000	
46	 C15	7.460	-1.330	15.780	C.2	1	UNK0	0.000	
47	 C16	7.200	-0.540	14.640	C.2	1	UNK0	0.000	
48	 C17	5.940	0.040	14.460	C.2	1	UNK0	0.000	
49	 C18	4.920	-0.190	15.370	C.2	1	UNK0	0.000	
50	 C19	5.180	-0.920	16.530	C.2	1	UNK0	0.000	
51	 C20	6.430	-1.520	16.720	C.2	1	UNK0	0.000	
52	  N3	3.740	0.540	15.280	N.pl3	1	UNK0	0.000	
53	  N4	8.880	2.440	19.240	N.pl3	1	UNK0	0.000	
54	 C21	5.450	4.180	21.670	C.3	1	UNK0	0.000	
55	 C22	5.960	4.530	20.290	C.3	1	UNK0	0.000	
56	 C23	7.360	4.010	20.120	C.2	1	UNK0	0.000	
57	 C24	7.560	2.840	19.310	C.2	1	UNK0	0.000	
58	  N5	6.480	2.210	18.720	N.2	1	UNK0	0.000	
59	 C25	5.340	2.840	18.680	C.2	1	UNK0	0.000	
60	  N6	5.040	4.010	19.260	N.pl3	1	UNK0	0.000	
61	 C26	3.660	4.490	19.410	C.3	1	UNK0	0.000	
62	  N7	4.390	2.350	17.900	N.pl3	1	UNK0	0.000	
@<TRIPOS>BOND
1 30 31 1
2 30 43 2
3 30 53 1
4 8 31 1
5 31 32 2
6 7 32 1
7 32 33 1
8 33 34 2
9 33 42 1
10 34 35 1
11 34 39 1
12 5 35 1
13 6 35 1
14 35 36 1
15 4 36 1
16 36 37 2
17 37 38 1
18 37 45 1
19 16 38 1
20 38 39 2
21 39 40 1
22 40 41 1
23 40 44 1
24 41 42 2
25 41 46 1
26 42 43 1
27 15 43 1
28 10 44 1
29 12 44 1
30 14 44 1
31 1 45 1
32 11 45 1
33 46 47 2
34 46 51 1
35 9 47 1
36 47 48 1
37 17 48 1
38 48 49 2
39 49 50 1
40 49 52 1
41 2 50 1
42 50 51 2
43 3 51 1
44 18 52 1
45 21 52 1
46 20 53 1
47 53 57 1
48 13 54 1
49 19 54 1
50 25 54 1
51 54 55 1
52 24 55 1
53 55 56 1
54 55 60 1
55 23 56 1
56 56 57 2
57 57 58 1
58 58 59 2
59 59 60 1
60 59 62 1
61 60 61 1
62 26 61 1
63 28 61 1
64 29 61 1
65 22 62 1
66 27 62 1
@<TRIPOS>SUBSTRUCTURE
1	UNK0	1	GROUP	1 ****	UNK
