# created with PyMOL 2.5.0
@<TRIPOS>MOLECULE
ZINC00538264
62 66 1                 
SMALL
USER_CHARGES
@<TRIPOS>ATOM
1	 H12	9.990	-6.330	13.540	 H	1	UNK0	0.000	
2	 H15	2.680	-0.950	18.590	 H	1	UNK0	0.000	
3	 H16	4.840	-2.160	18.550	 H	1	UNK0	0.000	
4	 H05	12.410	-4.430	15.350	 H	1	UNK0	0.000	
5	 H04	11.540	-2.070	15.800	 H	1	UNK0	0.000	
6	 H03	11.510	-3.040	17.270	 H	1	UNK0	0.000	
7	 H02	11.240	-0.810	17.790	 H	1	UNK0	0.000	
8	 H01	10.550	1.260	18.980	 H	1	UNK0	0.000	
9	 H13	5.650	-0.550	14.650	 H	1	UNK0	0.000	
10	 H08	6.400	-4.930	15.170	 H	1	UNK0	0.000	
11	 H11	11.630	-5.970	13.780	 H	1	UNK0	0.000	
12	 H10	5.930	-3.430	14.330	 H	1	UNK0	0.000	
13	 H21	3.580	1.430	21.410	 H	1	UNK0	0.000	
14	 H09	5.210	-3.900	15.880	 H	1	UNK0	0.000	
15	 H07	6.370	0.470	18.080	 H	1	UNK0	0.000	
16	 H06	8.250	-5.220	14.610	 H	1	UNK0	0.000	
17	 H14	3.480	0.640	14.700	 H	1	UNK0	0.000	
18	 H17	1.370	0.810	15.770	 H	1	UNK0	0.000	
19	 H20	3.350	1.290	19.670	 H	1	UNK0	0.000	
20	 H19	8.840	2.880	19.110	 H	1	UNK0	0.000	
21	 H18	1.070	0.210	17.310	 H	1	UNK0	0.000	
22	 H29	4.260	5.510	17.590	 H	1	UNK0	0.000	
23	 H24	6.050	1.280	20.650	 H	1	UNK0	0.000	
24	 H23	4.660	3.610	21.160	 H	1	UNK0	0.000	
25	 H22	2.490	2.550	20.580	 H	1	UNK0	0.000	
26	 H25	4.030	2.270	17.730	 H	1	UNK0	0.000	
27	 H28	5.940	5.880	17.380	 H	1	UNK0	0.000	
28	 H27	3.400	3.840	17.200	 H	1	UNK0	0.000	
29	 H26	2.560	2.960	18.460	 H	1	UNK0	0.000	
30	  C1	8.400	0.990	18.690	C.2	1	UNK0	0.000	
31	  C2	9.790	0.610	18.580	C.2	1	UNK0	0.000	
32	  C3	10.190	-0.600	17.900	C.2	1	UNK0	0.000	
33	  C4	9.190	-1.440	17.250	C.2	1	UNK0	0.000	
34	  C5	9.580	-2.610	16.470	C.2	1	UNK0	0.000	
35	  C6	11.050	-2.920	16.290	C.3	1	UNK0	0.000	
36	  C7	11.380	-4.140	15.480	C.2	1	UNK0	0.000	
37	  C8	10.360	-4.950	14.910	C.2	1	UNK0	0.000	
38	  C9	8.980	-4.590	15.080	C.2	1	UNK0	0.000	
39	 C10	8.540	-3.430	15.840	C.2	1	UNK0	0.000	
40	  N1	7.180	-3.100	15.980	N.pl3	1	UNK0	0.000	
41	 C11	6.770	-1.930	16.670	C.2	1	UNK0	0.000	
42	 C12	7.760	-1.080	17.340	C.2	1	UNK0	0.000	
43	 C13	7.400	0.140	18.060	C.2	1	UNK0	0.000	
44	 C14	6.140	-3.880	15.300	C.3	1	UNK0	0.000	
45	  N2	10.710	-6.050	14.200	N.pl3	1	UNK0	0.000	
46	 C15	5.380	-1.470	16.580	C.2	1	UNK0	0.000	
47	 C16	4.980	-0.670	15.490	C.2	1	UNK0	0.000	
48	 C17	3.760	-0.010	15.520	C.2	1	UNK0	0.000	
49	 C18	2.890	-0.160	16.600	C.2	1	UNK0	0.000	
50	 C19	3.310	-0.910	17.710	C.2	1	UNK0	0.000	
51	 C20	4.530	-1.580	17.690	C.2	1	UNK0	0.000	
52	  N3	1.760	0.640	16.700	N.pl3	1	UNK0	0.000	
53	  N4	8.110	2.200	19.300	N.pl3	1	UNK0	0.000	
54	 C21	3.440	2.010	20.490	C.3	1	UNK0	0.000	
55	 C22	4.590	2.980	20.270	C.3	1	UNK0	0.000	
56	 C23	5.880	2.220	20.160	C.2	1	UNK0	0.000	
57	 C24	6.910	2.850	19.380	C.2	1	UNK0	0.000	
58	  N5	6.710	4.080	18.820	N.2	1	UNK0	0.000	
59	 C25	5.480	4.470	18.660	C.2	1	UNK0	0.000	
60	  N6	4.360	3.840	19.100	N.pl3	1	UNK0	0.000	
61	 C26	3.550	3.200	18.060	C.3	1	UNK0	0.000	
62	  N7	5.190	5.550	17.980	N.pl3	1	UNK0	0.000	
@<TRIPOS>BOND
1 30 31 1
2 30 43 2
3 30 53 1
4 8 31 1
5 31 32 2
6 7 32 1
7 32 33 1
8 33 34 2
9 33 42 1
10 34 35 1
11 34 39 1
12 5 35 1
13 6 35 1
14 35 36 1
15 4 36 1
16 36 37 2
17 37 38 1
18 37 45 1
19 16 38 1
20 38 39 2
21 39 40 1
22 40 41 1
23 40 44 1
24 41 42 2
25 41 46 1
26 42 43 1
27 15 43 1
28 10 44 1
29 12 44 1
30 14 44 1
31 1 45 1
32 11 45 1
33 46 47 2
34 46 51 1
35 9 47 1
36 47 48 1
37 17 48 1
38 48 49 2
39 49 50 1
40 49 52 1
41 2 50 1
42 50 51 2
43 3 51 1
44 18 52 1
45 21 52 1
46 20 53 1
47 53 57 1
48 13 54 1
49 19 54 1
50 25 54 1
51 54 55 1
52 24 55 1
53 55 56 1
54 55 60 1
55 23 56 1
56 56 57 2
57 57 58 1
58 58 59 2
59 59 60 1
60 59 62 1
61 60 61 1
62 26 61 1
63 28 61 1
64 29 61 1
65 22 62 1
66 27 62 1
@<TRIPOS>SUBSTRUCTURE
1	UNK0	1	GROUP	1 ****	UNK
