# created with PyMOL 2.5.0
@<TRIPOS>MOLECULE
ZINC00538264
62 66 1                 
SMALL
USER_CHARGES
@<TRIPOS>ATOM
1	 H12	9.940	-6.950	14.590	 H	1	UNK0	0.000	
2	 H15	1.360	-0.360	18.130	 H	1	UNK0	0.000	
3	 H16	3.760	-0.950	18.300	 H	1	UNK0	0.000	
4	 H05	10.840	-5.020	15.510	 H	1	UNK0	0.000	
5	 H04	10.020	-2.610	15.320	 H	1	UNK0	0.000	
6	 H03	10.090	-3.100	17.010	 H	1	UNK0	0.000	
7	 H02	9.850	-0.800	16.920	 H	1	UNK0	0.000	
8	 H01	9.210	1.510	17.640	 H	1	UNK0	0.000	
9	 H13	3.690	-2.300	14.220	 H	1	UNK0	0.000	
10	 H08	4.410	-4.730	15.050	 H	1	UNK0	0.000	
11	 H11	8.290	-7.340	14.610	 H	1	UNK0	0.000	
12	 H10	3.710	-4.190	16.590	 H	1	UNK0	0.000	
13	 H21	4.850	6.370	19.900	 H	1	UNK0	0.000	
14	 H09	4.950	-5.410	16.610	 H	1	UNK0	0.000	
15	 H07	5.020	0.660	16.840	 H	1	UNK0	0.000	
16	 H06	6.630	-5.920	15.470	 H	1	UNK0	0.000	
17	 H14	1.290	-1.690	14.070	 H	1	UNK0	0.000	
18	 H17	-0.660	-1.130	15.280	 H	1	UNK0	0.000	
19	 H20	3.630	5.110	19.750	 H	1	UNK0	0.000	
20	 H19	7.560	3.050	18.090	 H	1	UNK0	0.000	
21	 H18	-0.640	-0.610	16.880	 H	1	UNK0	0.000	
22	 H29	1.860	3.670	16.230	 H	1	UNK0	0.000	
23	 H24	6.530	4.830	18.800	 H	1	UNK0	0.000	
24	 H23	5.040	6.500	17.410	 H	1	UNK0	0.000	
25	 H22	3.290	6.740	19.170	 H	1	UNK0	0.000	
26	 H25	1.590	5.730	16.580	 H	1	UNK0	0.000	
27	 H28	2.840	2.590	15.420	 H	1	UNK0	0.000	
28	 H27	2.880	6.390	15.540	 H	1	UNK0	0.000	
29	 H26	2.660	6.990	17.190	 H	1	UNK0	0.000	
30	  C1	7.060	1.260	17.300	C.2	1	UNK0	0.000	
31	  C2	8.430	0.800	17.380	C.2	1	UNK0	0.000	
32	  C3	8.800	-0.540	16.970	C.2	1	UNK0	0.000	
33	  C4	7.760	-1.500	16.580	C.2	1	UNK0	0.000	
34	  C5	8.110	-2.870	16.230	C.2	1	UNK0	0.000	
35	  C6	9.560	-3.260	16.070	C.3	1	UNK0	0.000	
36	  C7	9.820	-4.680	15.650	C.2	1	UNK0	0.000	
37	  C8	8.760	-5.620	15.460	C.2	1	UNK0	0.000	
38	  C9	7.400	-5.190	15.640	C.2	1	UNK0	0.000	
39	 C10	7.030	-3.850	16.030	C.2	1	UNK0	0.000	
40	  N1	5.690	-3.470	16.170	N.pl3	1	UNK0	0.000	
41	 C11	5.310	-2.120	16.380	C.2	1	UNK0	0.000	
42	 C12	6.350	-1.090	16.590	C.2	1	UNK0	0.000	
43	 C13	6.040	0.310	16.880	C.2	1	UNK0	0.000	
44	 C14	4.640	-4.490	16.090	C.3	1	UNK0	0.000	
45	  N2	9.060	-6.890	15.100	N.pl3	1	UNK0	0.000	
46	 C15	3.890	-1.730	16.290	C.2	1	UNK0	0.000	
47	 C16	3.180	-1.920	15.090	C.2	1	UNK0	0.000	
48	 C17	1.820	-1.580	15.010	C.2	1	UNK0	0.000	
49	 C18	1.150	-1.100	16.130	C.2	1	UNK0	0.000	
50	 C19	1.860	-0.830	17.290	C.2	1	UNK0	0.000	
51	 C20	3.210	-1.170	17.390	C.2	1	UNK0	0.000	
52	  N3	-0.160	-0.610	15.990	N.pl3	1	UNK0	0.000	
53	  N4	6.790	2.570	17.650	N.pl3	1	UNK0	0.000	
54	 C21	4.070	5.970	19.250	C.3	1	UNK0	0.000	
55	 C22	4.630	5.600	17.890	C.3	1	UNK0	0.000	
56	 C23	5.740	4.620	18.090	C.2	1	UNK0	0.000	
57	 C24	5.730	3.390	17.360	C.2	1	UNK0	0.000	
58	  N5	4.750	3.150	16.410	N.2	1	UNK0	0.000	
59	 C25	3.740	3.930	16.360	C.2	1	UNK0	0.000	
60	  N6	3.530	5.080	17.060	N.pl3	1	UNK0	0.000	
61	 C26	2.620	6.090	16.570	C.3	1	UNK0	0.000	
62	  N7	2.690	3.560	15.660	N.pl3	1	UNK0	0.000	
@<TRIPOS>BOND
1 30 31 1
2 30 43 2
3 30 53 1
4 8 31 1
5 31 32 2
6 7 32 1
7 32 33 1
8 33 34 2
9 33 42 1
10 34 35 1
11 34 39 1
12 5 35 1
13 6 35 1
14 35 36 1
15 4 36 1
16 36 37 2
17 37 38 1
18 37 45 1
19 16 38 1
20 38 39 2
21 39 40 1
22 40 41 1
23 40 44 1
24 41 42 2
25 41 46 1
26 42 43 1
27 15 43 1
28 10 44 1
29 12 44 1
30 14 44 1
31 1 45 1
32 11 45 1
33 46 47 2
34 46 51 1
35 9 47 1
36 47 48 1
37 17 48 1
38 48 49 2
39 49 50 1
40 49 52 1
41 2 50 1
42 50 51 2
43 3 51 1
44 18 52 1
45 21 52 1
46 20 53 1
47 53 57 1
48 13 54 1
49 19 54 1
50 25 54 1
51 54 55 1
52 24 55 1
53 55 56 1
54 55 60 1
55 23 56 1
56 56 57 2
57 57 58 1
58 58 59 2
59 59 60 1
60 59 62 1
61 60 61 1
62 26 61 1
63 28 61 1
64 29 61 1
65 22 62 1
66 27 62 1
@<TRIPOS>SUBSTRUCTURE
1	UNK0	1	GROUP	1 ****	UNK
