# created with PyMOL 2.5.0
@<TRIPOS>MOLECULE
ZINC00538264
62 66 1                 
SMALL
USER_CHARGES
@<TRIPOS>ATOM
1	 H12	9.290	-6.170	13.170	 H	1	UNK0	0.000	
2	 H15	2.600	0.160	17.540	 H	1	UNK0	0.000	
3	 H16	4.700	-1.120	17.730	 H	1	UNK0	0.000	
4	 H05	11.930	-4.660	15.070	 H	1	UNK0	0.000	
5	 H04	11.510	-2.310	15.810	 H	1	UNK0	0.000	
6	 H03	10.920	-3.400	17.080	 H	1	UNK0	0.000	
7	 H02	11.210	-1.080	17.670	 H	1	UNK0	0.000	
8	 H01	10.700	0.910	19.120	 H	1	UNK0	0.000	
9	 H13	6.030	0.500	13.980	 H	1	UNK0	0.000	
10	 H08	5.070	-2.270	14.300	 H	1	UNK0	0.000	
11	 H11	10.830	-6.370	13.850	 H	1	UNK0	0.000	
12	 H10	5.810	-3.850	14.390	 H	1	UNK0	0.000	
13	 H21	4.780	0.490	22.480	 H	1	UNK0	0.000	
14	 H09	6.380	-2.660	13.190	 H	1	UNK0	0.000	
15	 H07	6.600	0.940	17.670	 H	1	UNK0	0.000	
16	 H06	7.840	-4.470	13.690	 H	1	UNK0	0.000	
17	 H14	3.930	1.810	13.820	 H	1	UNK0	0.000	
18	 H17	1.720	2.000	14.610	 H	1	UNK0	0.000	
19	 H20	3.290	0.630	21.440	 H	1	UNK0	0.000	
20	 H19	8.880	2.870	19.210	 H	1	UNK0	0.000	
21	 H18	1.160	1.310	16.040	 H	1	UNK0	0.000	
22	 H29	3.840	5.060	18.700	 H	1	UNK0	0.000	
23	 H24	7.080	1.250	21.420	 H	1	UNK0	0.000	
24	 H23	4.960	2.230	22.090	 H	1	UNK0	0.000	
25	 H22	3.540	1.800	22.870	 H	1	UNK0	0.000	
26	 H25	2.440	2.770	20.450	 H	1	UNK0	0.000	
27	 H28	5.440	5.200	18.140	 H	1	UNK0	0.000	
28	 H27	2.690	4.480	20.070	 H	1	UNK0	0.000	
29	 H26	2.980	3.890	21.710	 H	1	UNK0	0.000	
30	  C1	8.590	1.040	18.550	C.2	1	UNK0	0.000	
31	  C2	9.930	0.490	18.500	C.2	1	UNK0	0.000	
32	  C3	10.210	-0.670	17.660	C.2	1	UNK0	0.000	
33	  C4	9.160	-1.250	16.830	C.2	1	UNK0	0.000	
34	  C5	9.390	-2.420	16.020	C.2	1	UNK0	0.000	
35	  C6	10.750	-3.050	16.060	C.3	1	UNK0	0.000	
36	  C7	10.950	-4.220	15.140	C.2	1	UNK0	0.000	
37	  C8	9.900	-4.700	14.310	C.2	1	UNK0	0.000	
38	  C9	8.610	-4.090	14.340	C.2	1	UNK0	0.000	
39	 C10	8.310	-2.950	15.180	C.2	1	UNK0	0.000	
40	  N1	7.040	-2.340	15.170	N.pl3	1	UNK0	0.000	
41	 C11	6.760	-1.200	15.960	C.2	1	UNK0	0.000	
42	 C12	7.820	-0.640	16.810	C.2	1	UNK0	0.000	
43	 C13	7.580	0.480	17.670	C.2	1	UNK0	0.000	
44	 C14	6.020	-2.790	14.210	C.3	1	UNK0	0.000	
45	  N2	10.150	-5.730	13.460	N.pl3	1	UNK0	0.000	
46	 C15	5.480	-0.470	15.830	C.2	1	UNK0	0.000	
47	 C16	5.260	0.390	14.740	C.2	1	UNK0	0.000	
48	 C17	4.070	1.130	14.650	C.2	1	UNK0	0.000	
49	 C18	3.070	0.970	15.610	C.2	1	UNK0	0.000	
50	 C19	3.320	0.190	16.730	C.2	1	UNK0	0.000	
51	 C20	4.510	-0.540	16.840	C.2	1	UNK0	0.000	
52	  N3	1.940	1.780	15.570	N.pl3	1	UNK0	0.000	
53	  N4	8.290	2.070	19.420	N.pl3	1	UNK0	0.000	
54	 C21	4.080	1.210	21.960	C.3	1	UNK0	0.000	
55	 C22	5.000	2.160	21.090	C.3	1	UNK0	0.000	
56	 C23	6.450	1.890	20.820	C.2	1	UNK0	0.000	
57	 C24	7.010	2.480	19.650	C.2	1	UNK0	0.000	
58	  N5	6.220	3.220	18.800	N.2	1	UNK0	0.000	
59	 C25	5.120	3.710	19.240	C.2	1	UNK0	0.000	
60	  N6	4.450	3.310	20.360	N.pl3	1	UNK0	0.000	
61	 C26	3.080	3.640	20.650	C.3	1	UNK0	0.000	
62	  N7	4.820	4.960	18.910	N.pl3	1	UNK0	0.000	
@<TRIPOS>BOND
1 30 31 1
2 30 43 2
3 30 53 1
4 8 31 1
5 31 32 2
6 7 32 1
7 32 33 1
8 33 34 2
9 33 42 1
10 34 35 1
11 34 39 1
12 5 35 1
13 6 35 1
14 35 36 1
15 4 36 1
16 36 37 2
17 37 38 1
18 37 45 1
19 16 38 1
20 38 39 2
21 39 40 1
22 40 41 1
23 40 44 1
24 41 42 2
25 41 46 1
26 42 43 1
27 15 43 1
28 10 44 1
29 12 44 1
30 14 44 1
31 1 45 1
32 11 45 1
33 46 47 2
34 46 51 1
35 9 47 1
36 47 48 1
37 17 48 1
38 48 49 2
39 49 50 1
40 49 52 1
41 2 50 1
42 50 51 2
43 3 51 1
44 18 52 1
45 21 52 1
46 20 53 1
47 53 57 1
48 13 54 1
49 19 54 1
50 25 54 1
51 54 55 1
52 24 55 1
53 55 56 1
54 55 60 1
55 23 56 1
56 56 57 2
57 57 58 1
58 58 59 2
59 59 60 1
60 59 62 1
61 60 61 1
62 26 61 1
63 28 61 1
64 29 61 1
65 22 62 1
66 27 62 1
@<TRIPOS>SUBSTRUCTURE
1	UNK0	1	GROUP	1 ****	UNK
