# created with PyMOL 2.5.0
@<TRIPOS>MOLECULE
ZINC00538264
62 66 1                 
SMALL
USER_CHARGES
@<TRIPOS>ATOM
1	 H12	11.640	-4.510	16.020	 H	1	UNK0	0.000	
2	 H15	3.450	-1.090	19.040	 H	1	UNK0	0.000	
3	 H16	5.900	-1.480	18.910	 H	1	UNK0	0.000	
4	 H05	13.550	-2.300	18.060	 H	1	UNK0	0.000	
5	 H04	12.660	0.120	17.860	 H	1	UNK0	0.000	
6	 H03	12.230	-0.620	19.400	 H	1	UNK0	0.000	
7	 H02	11.870	1.760	19.340	 H	1	UNK0	0.000	
8	 H01	10.810	3.710	20.490	 H	1	UNK0	0.000	
9	 H13	6.320	2.060	16.510	 H	1	UNK0	0.000	
10	 H08	6.750	-1.310	15.760	 H	1	UNK0	0.000	
11	 H11	13.150	-4.120	16.700	 H	1	UNK0	0.000	
12	 H10	7.180	-2.690	16.800	 H	1	UNK0	0.000	
13	 H21	3.850	3.320	19.530	 H	1	UNK0	0.000	
14	 H09	8.170	-2.240	15.400	 H	1	UNK0	0.000	
15	 H07	6.870	2.340	19.220	 H	1	UNK0	0.000	
16	 H06	9.670	-3.280	16.450	 H	1	UNK0	0.000	
17	 H14	3.870	2.430	16.650	 H	1	UNK0	0.000	
18	 H17	1.770	1.460	17.180	 H	1	UNK0	0.000	
19	 H20	2.570	3.760	20.660	 H	1	UNK0	0.000	
20	 H19	8.900	5.040	20.590	 H	1	UNK0	0.000	
21	 H18	1.610	0.080	18.130	 H	1	UNK0	0.000	
22	 H29	4.450	7.380	18.950	 H	1	UNK0	0.000	
23	 H24	6.180	2.950	21.560	 H	1	UNK0	0.000	
24	 H23	4.260	4.580	22.300	 H	1	UNK0	0.000	
25	 H22	3.700	2.470	21.090	 H	1	UNK0	0.000	
26	 H25	2.400	5.750	21.270	 H	1	UNK0	0.000	
27	 H28	6.060	7.820	19.060	 H	1	UNK0	0.000	
28	 H27	2.700	6.840	19.910	 H	1	UNK0	0.000	
29	 H26	3.270	7.270	21.550	 H	1	UNK0	0.000	
30	  C1	8.740	3.140	20.020	C.2	1	UNK0	0.000	
31	  C2	10.180	2.970	20.020	C.2	1	UNK0	0.000	
32	  C3	10.790	1.830	19.360	C.2	1	UNK0	0.000	
33	  C4	9.980	0.840	18.660	C.2	1	UNK0	0.000	
34	  C5	10.590	-0.340	18.080	C.2	1	UNK0	0.000	
35	  C6	12.050	-0.660	18.320	C.3	1	UNK0	0.000	
36	  C7	12.540	-1.990	17.840	C.2	1	UNK0	0.000	
37	  C8	11.670	-2.910	17.170	C.2	1	UNK0	0.000	
38	  C9	10.310	-2.540	16.920	C.2	1	UNK0	0.000	
39	 C10	9.740	-1.270	17.320	C.2	1	UNK0	0.000	
40	  N1	8.380	-0.980	17.110	N.pl3	1	UNK0	0.000	
41	 C11	7.740	0.100	17.750	C.2	1	UNK0	0.000	
42	 C12	8.520	1.040	18.570	C.2	1	UNK0	0.000	
43	 C13	7.930	2.170	19.290	C.2	1	UNK0	0.000	
44	 C14	7.580	-1.850	16.230	C.3	1	UNK0	0.000	
45	  N2	12.140	-4.120	16.830	N.pl3	1	UNK0	0.000	
46	 C15	6.270	0.240	17.680	C.2	1	UNK0	0.000	
47	 C16	5.690	1.340	17.030	C.2	1	UNK0	0.000	
48	 C17	4.310	1.550	17.100	C.2	1	UNK0	0.000	
49	 C18	3.490	0.630	17.760	C.2	1	UNK0	0.000	
50	 C19	4.070	-0.430	18.450	C.2	1	UNK0	0.000	
51	 C20	5.450	-0.640	18.390	C.2	1	UNK0	0.000	
52	  N3	2.140	0.930	17.970	N.pl3	1	UNK0	0.000	
53	  N4	8.240	4.270	20.640	N.pl3	1	UNK0	0.000	
54	 C21	3.610	3.450	20.600	C.3	1	UNK0	0.000	
55	 C22	4.540	4.470	21.240	C.3	1	UNK0	0.000	
56	 C23	5.930	3.940	21.200	C.2	1	UNK0	0.000	
57	 C24	6.980	4.770	20.650	C.2	1	UNK0	0.000	
58	  N5	6.730	6.050	20.220	N.2	1	UNK0	0.000	
59	 C25	5.500	6.450	20.200	C.2	1	UNK0	0.000	
60	  N6	4.390	5.770	20.580	N.pl3	1	UNK0	0.000	
61	 C26	3.130	6.440	20.840	C.3	1	UNK0	0.000	
62	  N7	5.220	7.580	19.570	N.pl3	1	UNK0	0.000	
@<TRIPOS>BOND
1 30 31 1
2 30 43 2
3 30 53 1
4 8 31 1
5 31 32 2
6 7 32 1
7 32 33 1
8 33 34 2
9 33 42 1
10 34 35 1
11 34 39 1
12 5 35 1
13 6 35 1
14 35 36 1
15 4 36 1
16 36 37 2
17 37 38 1
18 37 45 1
19 16 38 1
20 38 39 2
21 39 40 1
22 40 41 1
23 40 44 1
24 41 42 2
25 41 46 1
26 42 43 1
27 15 43 1
28 10 44 1
29 12 44 1
30 14 44 1
31 1 45 1
32 11 45 1
33 46 47 2
34 46 51 1
35 9 47 1
36 47 48 1
37 17 48 1
38 48 49 2
39 49 50 1
40 49 52 1
41 2 50 1
42 50 51 2
43 3 51 1
44 18 52 1
45 21 52 1
46 20 53 1
47 53 57 1
48 13 54 1
49 19 54 1
50 25 54 1
51 54 55 1
52 24 55 1
53 55 56 1
54 55 60 1
55 23 56 1
56 56 57 2
57 57 58 1
58 58 59 2
59 59 60 1
60 59 62 1
61 60 61 1
62 26 61 1
63 28 61 1
64 29 61 1
65 22 62 1
66 27 62 1
@<TRIPOS>SUBSTRUCTURE
1	UNK0	1	GROUP	1 ****	UNK
