# created with PyMOL 2.5.0
@<TRIPOS>MOLECULE
ZINC00538264
62 66 1                 
SMALL
USER_CHARGES
@<TRIPOS>ATOM
1	 H12	13.330	-7.210	13.670	 H	1	UNK0	0.000	
2	 H15	5.940	-1.890	18.230	 H	1	UNK0	0.000	
3	 H16	8.110	-3.060	18.100	 H	1	UNK0	0.000	
4	 H05	15.700	-5.370	15.630	 H	1	UNK0	0.000	
5	 H04	14.920	-2.970	16.040	 H	1	UNK0	0.000	
6	 H03	14.680	-3.950	17.490	 H	1	UNK0	0.000	
7	 H02	14.430	-1.660	17.990	 H	1	UNK0	0.000	
8	 H01	13.820	0.670	18.740	 H	1	UNK0	0.000	
9	 H13	8.950	-1.070	14.380	 H	1	UNK0	0.000	
10	 H08	9.670	-5.780	15.550	 H	1	UNK0	0.000	
11	 H11	14.970	-6.900	14.030	 H	1	UNK0	0.000	
12	 H10	9.490	-4.630	14.200	 H	1	UNK0	0.000	
13	 H21	8.520	4.920	20.520	 H	1	UNK0	0.000	
14	 H09	8.470	-4.530	15.650	 H	1	UNK0	0.000	
15	 H07	9.780	0.110	17.200	 H	1	UNK0	0.000	
16	 H06	11.550	-6.030	14.640	 H	1	UNK0	0.000	
17	 H14	6.790	0.100	14.540	 H	1	UNK0	0.000	
18	 H17	5.060	0.750	15.990	 H	1	UNK0	0.000	
19	 H20	7.640	3.850	19.420	 H	1	UNK0	0.000	
20	 H19	12.030	2.210	19.170	 H	1	UNK0	0.000	
21	 H18	4.710	-0.030	17.430	 H	1	UNK0	0.000	
22	 H29	8.430	4.250	14.780	 H	1	UNK0	0.000	
23	 H24	10.910	3.980	19.740	 H	1	UNK0	0.000	
24	 H23	9.750	5.900	18.580	 H	1	UNK0	0.000	
25	 H22	7.410	5.600	19.320	 H	1	UNK0	0.000	
26	 H25	6.730	5.260	16.980	 H	1	UNK0	0.000	
27	 H28	8.650	2.600	14.950	 H	1	UNK0	0.000	
28	 H27	7.780	5.960	15.710	 H	1	UNK0	0.000	
29	 H26	7.820	6.610	17.350	 H	1	UNK0	0.000	
30	  C1	11.770	0.590	17.970	C.2	1	UNK0	0.000	
31	  C2	13.080	0.050	18.250	C.2	1	UNK0	0.000	
32	  C3	13.430	-1.290	17.810	C.2	1	UNK0	0.000	
33	  C4	12.480	-2.120	17.090	C.2	1	UNK0	0.000	
34	  C5	12.880	-3.390	16.490	C.2	1	UNK0	0.000	
35	  C6	14.340	-3.790	16.460	C.3	1	UNK0	0.000	
36	  C7	14.670	-5.030	15.680	C.2	1	UNK0	0.000	
37	  C8	13.660	-5.810	15.050	C.2	1	UNK0	0.000	
38	  C9	12.290	-5.410	15.140	C.2	1	UNK0	0.000	
39	 C10	11.850	-4.230	15.860	C.2	1	UNK0	0.000	
40	  N1	10.500	-3.850	15.890	N.pl3	1	UNK0	0.000	
41	 C11	10.100	-2.570	16.330	C.2	1	UNK0	0.000	
42	 C12	11.090	-1.650	16.920	C.2	1	UNK0	0.000	
43	 C13	10.780	-0.280	17.340	C.2	1	UNK0	0.000	
44	 C14	9.480	-4.730	15.290	C.3	1	UNK0	0.000	
45	  N2	14.010	-6.930	14.370	N.pl3	1	UNK0	0.000	
46	 C15	8.700	-2.140	16.240	C.2	1	UNK0	0.000	
47	 C16	8.300	-1.260	15.230	C.2	1	UNK0	0.000	
48	 C17	7.080	-0.580	15.320	C.2	1	UNK0	0.000	
49	 C18	6.270	-0.750	16.440	C.2	1	UNK0	0.000	
50	 C19	6.610	-1.700	17.390	C.2	1	UNK0	0.000	
51	 C20	7.830	-2.380	17.320	C.2	1	UNK0	0.000	
52	  N3	5.020	-0.140	16.470	N.pl3	1	UNK0	0.000	
53	  N4	11.490	1.880	18.370	N.pl3	1	UNK0	0.000	
54	 C21	8.150	4.810	19.500	C.3	1	UNK0	0.000	
55	 C22	9.290	4.910	18.500	C.3	1	UNK0	0.000	
56	 C23	10.320	3.880	18.850	C.2	1	UNK0	0.000	
57	 C24	10.500	2.750	17.980	C.2	1	UNK0	0.000	
58	  N5	9.770	2.640	16.820	N.2	1	UNK0	0.000	
59	 C25	8.940	3.570	16.500	C.2	1	UNK0	0.000	
60	  N6	8.770	4.760	17.140	N.pl3	1	UNK0	0.000	
61	 C26	7.720	5.690	16.770	C.3	1	UNK0	0.000	
62	  N7	8.270	3.450	15.380	N.pl3	1	UNK0	0.000	
@<TRIPOS>BOND
1 30 31 1
2 30 43 2
3 30 53 1
4 8 31 1
5 31 32 2
6 7 32 1
7 32 33 1
8 33 34 2
9 33 42 1
10 34 35 1
11 34 39 1
12 5 35 1
13 6 35 1
14 35 36 1
15 4 36 1
16 36 37 2
17 37 38 1
18 37 45 1
19 16 38 1
20 38 39 2
21 39 40 1
22 40 41 1
23 40 44 1
24 41 42 2
25 41 46 1
26 42 43 1
27 15 43 1
28 10 44 1
29 12 44 1
30 14 44 1
31 1 45 1
32 11 45 1
33 46 47 2
34 46 51 1
35 9 47 1
36 47 48 1
37 17 48 1
38 48 49 2
39 49 50 1
40 49 52 1
41 2 50 1
42 50 51 2
43 3 51 1
44 18 52 1
45 21 52 1
46 20 53 1
47 53 57 1
48 13 54 1
49 19 54 1
50 25 54 1
51 54 55 1
52 24 55 1
53 55 56 1
54 55 60 1
55 23 56 1
56 56 57 2
57 57 58 1
58 58 59 2
59 59 60 1
60 59 62 1
61 60 61 1
62 26 61 1
63 28 61 1
64 29 61 1
65 22 62 1
66 27 62 1
@<TRIPOS>SUBSTRUCTURE
1	UNK0	1	GROUP	1 ****	UNK
