# created with PyMOL 2.5.0
@<TRIPOS>MOLECULE
ZINC00538264
62 66 1                 
SMALL
USER_CHARGES
@<TRIPOS>ATOM
1	 H12	12.300	-6.300	15.660	 H	1	UNK0	0.000	
2	 H15	3.180	-5.660	16.060	 H	1	UNK0	0.000	
3	 H16	5.490	-4.930	16.600	 H	1	UNK0	0.000	
4	 H05	13.070	-2.980	16.770	 H	1	UNK0	0.000	
5	 H04	11.460	-1.190	15.950	 H	1	UNK0	0.000	
6	 H03	11.000	-1.760	17.560	 H	1	UNK0	0.000	
7	 H02	9.910	0.170	17.020	 H	1	UNK0	0.000	
8	 H01	8.090	1.340	18.180	 H	1	UNK0	0.000	
9	 H13	5.400	-2.250	13.230	 H	1	UNK0	0.000	
10	 H08	7.650	-6.000	14.900	 H	1	UNK0	0.000	
11	 H11	13.420	-5.260	16.440	 H	1	UNK0	0.000	
12	 H10	8.610	-5.410	13.520	 H	1	UNK0	0.000	
13	 H21	3.270	4.290	21.950	 H	1	UNK0	0.000	
14	 H09	6.900	-5.100	13.570	 H	1	UNK0	0.000	
15	 H07	5.100	-1.280	16.410	 H	1	UNK0	0.000	
16	 H06	10.190	-5.620	14.910	 H	1	UNK0	0.000	
17	 H14	3.090	-3.000	12.720	 H	1	UNK0	0.000	
18	 H17	1.170	-4.150	13.510	 H	1	UNK0	0.000	
19	 H20	2.480	2.830	21.320	 H	1	UNK0	0.000	
20	 H19	4.590	0.320	18.050	 H	1	UNK0	0.000	
21	 H18	1.210	-5.200	14.830	 H	1	UNK0	0.000	
22	 H29	6.890	5.700	19.740	 H	1	UNK0	0.000	
23	 H24	3.880	1.050	19.940	 H	1	UNK0	0.000	
24	 H23	4.870	2.410	21.840	 H	1	UNK0	0.000	
25	 H22	2.950	4.140	20.210	 H	1	UNK0	0.000	
26	 H25	6.240	5.690	21.740	 H	1	UNK0	0.000	
27	 H28	7.750	4.810	18.620	 H	1	UNK0	0.000	
28	 H27	7.020	4.150	22.220	 H	1	UNK0	0.000	
29	 H26	5.340	4.500	22.690	 H	1	UNK0	0.000	
30	  C1	6.420	0.260	17.240	C.2	1	UNK0	0.000	
31	  C2	7.820	0.610	17.440	C.2	1	UNK0	0.000	
32	  C3	8.890	-0.120	16.800	C.2	1	UNK0	0.000	
33	  C4	8.600	-1.400	16.190	C.2	1	UNK0	0.000	
34	  C5	9.670	-2.360	15.990	C.2	1	UNK0	0.000	
35	  C6	11.060	-2.050	16.500	C.3	1	UNK0	0.000	
36	  C7	12.070	-3.150	16.410	C.2	1	UNK0	0.000	
37	  C8	11.750	-4.410	15.800	C.2	1	UNK0	0.000	
38	  C9	10.410	-4.640	15.320	C.2	1	UNK0	0.000	
39	 C10	9.360	-3.650	15.380	C.2	1	UNK0	0.000	
40	  N1	8.050	-3.930	14.930	N.pl3	1	UNK0	0.000	
41	 C11	6.970	-3.090	15.270	C.2	1	UNK0	0.000	
42	 C12	7.200	-1.800	15.940	C.2	1	UNK0	0.000	
43	 C13	6.130	-0.950	16.480	C.2	1	UNK0	0.000	
44	 C14	7.790	-5.170	14.200	C.3	1	UNK0	0.000	
45	  N2	12.700	-5.360	15.740	N.pl3	1	UNK0	0.000	
46	 C15	5.590	-3.510	14.980	C.2	1	UNK0	0.000	
47	 C16	4.900	-2.960	13.880	C.2	1	UNK0	0.000	
48	 C17	3.600	-3.380	13.590	C.2	1	UNK0	0.000	
49	 C18	2.950	-4.290	14.420	C.2	1	UNK0	0.000	
50	 C19	3.650	-4.880	15.470	C.2	1	UNK0	0.000	
51	 C20	4.960	-4.480	15.770	C.2	1	UNK0	0.000	
52	  N3	1.720	-4.820	14.040	N.pl3	1	UNK0	0.000	
53	  N4	5.390	0.920	17.870	N.pl3	1	UNK0	0.000	
54	 C21	3.250	3.580	21.110	C.3	1	UNK0	0.000	
55	 C22	4.600	2.930	20.920	C.3	1	UNK0	0.000	
56	 C23	4.530	1.900	19.830	C.2	1	UNK0	0.000	
57	 C24	5.440	1.990	18.730	C.2	1	UNK0	0.000	
58	  N5	6.290	3.060	18.600	N.2	1	UNK0	0.000	
59	 C25	6.410	3.880	19.590	C.2	1	UNK0	0.000	
60	  N6	5.610	3.970	20.680	N.pl3	1	UNK0	0.000	
61	 C26	6.080	4.610	21.900	C.3	1	UNK0	0.000	
62	  N7	7.330	4.820	19.550	N.pl3	1	UNK0	0.000	
@<TRIPOS>BOND
1 30 31 1
2 30 43 2
3 30 53 1
4 8 31 1
5 31 32 2
6 7 32 1
7 32 33 1
8 33 34 2
9 33 42 1
10 34 35 1
11 34 39 1
12 5 35 1
13 6 35 1
14 35 36 1
15 4 36 1
16 36 37 2
17 37 38 1
18 37 45 1
19 16 38 1
20 38 39 2
21 39 40 1
22 40 41 1
23 40 44 1
24 41 42 2
25 41 46 1
26 42 43 1
27 15 43 1
28 10 44 1
29 12 44 1
30 14 44 1
31 1 45 1
32 11 45 1
33 46 47 2
34 46 51 1
35 9 47 1
36 47 48 1
37 17 48 1
38 48 49 2
39 49 50 1
40 49 52 1
41 2 50 1
42 50 51 2
43 3 51 1
44 18 52 1
45 21 52 1
46 20 53 1
47 53 57 1
48 13 54 1
49 19 54 1
50 25 54 1
51 54 55 1
52 24 55 1
53 55 56 1
54 55 60 1
55 23 56 1
56 56 57 2
57 57 58 1
58 58 59 2
59 59 60 1
60 59 62 1
61 60 61 1
62 26 61 1
63 28 61 1
64 29 61 1
65 22 62 1
66 27 62 1
@<TRIPOS>SUBSTRUCTURE
1	UNK0	1	GROUP	1 ****	UNK
