# created with PyMOL 2.5.0
@<TRIPOS>MOLECULE
ZINC00538264
62 66 1                 
SMALL
USER_CHARGES
@<TRIPOS>ATOM
1	 H12	7.790	-7.290	16.210	 H	1	UNK0	0.000	
2	 H15	2.610	-0.470	20.640	 H	1	UNK0	0.000	
3	 H16	4.690	-1.820	20.420	 H	1	UNK0	0.000	
4	 H05	10.930	-5.990	17.310	 H	1	UNK0	0.000	
5	 H04	10.920	-3.440	17.170	 H	1	UNK0	0.000	
6	 H03	10.820	-3.970	18.850	 H	1	UNK0	0.000	
7	 H02	11.340	-1.580	18.400	 H	1	UNK0	0.000	
8	 H01	11.480	0.780	19.280	 H	1	UNK0	0.000	
9	 H13	5.770	0.430	16.930	 H	1	UNK0	0.000	
10	 H08	4.450	-2.690	17.500	 H	1	UNK0	0.000	
11	 H11	9.470	-7.470	16.270	 H	1	UNK0	0.000	
12	 H10	4.940	-4.240	18.190	 H	1	UNK0	0.000	
13	 H21	5.250	2.520	22.610	 H	1	UNK0	0.000	
14	 H09	5.340	-3.810	16.510	 H	1	UNK0	0.000	
15	 H07	7.160	0.940	19.710	 H	1	UNK0	0.000	
16	 H06	6.650	-5.460	17.170	 H	1	UNK0	0.000	
17	 H14	3.690	1.770	17.160	 H	1	UNK0	0.000	
18	 H17	1.500	1.520	19.970	 H	1	UNK0	0.000	
19	 H20	5.540	3.950	21.600	 H	1	UNK0	0.000	
20	 H19	10.100	2.820	19.560	 H	1	UNK0	0.000	
21	 H18	1.920	2.380	18.590	 H	1	UNK0	0.000	
22	 H29	8.330	6.980	22.290	 H	1	UNK0	0.000	
23	 H24	7.760	1.440	22.020	 H	1	UNK0	0.000	
24	 H23	7.310	3.010	23.910	 H	1	UNK0	0.000	
25	 H22	5.190	4.140	23.320	 H	1	UNK0	0.000	
26	 H25	7.700	6.510	24.150	 H	1	UNK0	0.000	
27	 H28	9.530	6.610	21.170	 H	1	UNK0	0.000	
28	 H27	8.680	5.150	24.760	 H	1	UNK0	0.000	
29	 H26	6.910	5.090	24.800	 H	1	UNK0	0.000	
30	  C1	9.340	0.980	19.670	C.2	1	UNK0	0.000	
31	  C2	10.510	0.290	19.190	C.2	1	UNK0	0.000	
32	  C3	10.420	-1.070	18.680	C.2	1	UNK0	0.000	
33	  C4	9.130	-1.730	18.570	C.2	1	UNK0	0.000	
34	  C5	9.030	-3.100	18.090	C.2	1	UNK0	0.000	
35	  C6	10.280	-3.930	17.900	C.3	1	UNK0	0.000	
36	  C7	10.070	-5.350	17.430	C.2	1	UNK0	0.000	
37	  C8	8.770	-5.860	17.170	C.2	1	UNK0	0.000	
38	  C9	7.620	-5.030	17.360	C.2	1	UNK0	0.000	
39	 C10	7.700	-3.660	17.810	C.2	1	UNK0	0.000	
40	  N1	6.540	-2.880	17.980	N.pl3	1	UNK0	0.000	
41	 C11	6.600	-1.580	18.540	C.2	1	UNK0	0.000	
42	 C12	7.900	-0.970	18.880	C.2	1	UNK0	0.000	
43	 C13	8.040	0.360	19.480	C.2	1	UNK0	0.000	
44	 C14	5.260	-3.420	17.530	C.3	1	UNK0	0.000	
45	  N2	8.640	-7.150	16.750	N.pl3	1	UNK0	0.000	
46	 C15	5.380	-0.770	18.680	C.2	1	UNK0	0.000	
47	 C16	5.090	0.250	17.750	C.2	1	UNK0	0.000	
48	 C17	3.930	1.010	17.900	C.2	1	UNK0	0.000	
49	 C18	3.080	0.810	18.980	C.2	1	UNK0	0.000	
50	 C19	3.320	-0.250	19.850	C.2	1	UNK0	0.000	
51	 C20	4.480	-1.020	19.720	C.2	1	UNK0	0.000	
52	  N3	1.850	1.470	19.020	N.pl3	1	UNK0	0.000	
53	  N4	9.510	2.260	20.170	N.pl3	1	UNK0	0.000	
54	 C21	5.710	3.510	22.590	C.3	1	UNK0	0.000	
55	 C22	7.190	3.430	22.910	C.3	1	UNK0	0.000	
56	 C23	7.870	2.510	21.940	C.2	1	UNK0	0.000	
57	 C24	8.780	3.070	20.980	C.2	1	UNK0	0.000	
58	  N5	9.000	4.430	20.920	N.2	1	UNK0	0.000	
59	 C25	8.640	5.130	21.940	C.2	1	UNK0	0.000	
60	  N6	7.750	4.800	22.910	N.pl3	1	UNK0	0.000	
61	 C26	7.770	5.420	24.220	C.3	1	UNK0	0.000	
62	  N7	9.090	6.370	22.050	N.pl3	1	UNK0	0.000	
@<TRIPOS>BOND
1 30 31 1
2 30 43 2
3 30 53 1
4 8 31 1
5 31 32 2
6 7 32 1
7 32 33 1
8 33 34 2
9 33 42 1
10 34 35 1
11 34 39 1
12 5 35 1
13 6 35 1
14 35 36 1
15 4 36 1
16 36 37 2
17 37 38 1
18 37 45 1
19 16 38 1
20 38 39 2
21 39 40 1
22 40 41 1
23 40 44 1
24 41 42 2
25 41 46 1
26 42 43 1
27 15 43 1
28 10 44 1
29 12 44 1
30 14 44 1
31 1 45 1
32 11 45 1
33 46 47 2
34 46 51 1
35 9 47 1
36 47 48 1
37 17 48 1
38 48 49 2
39 49 50 1
40 49 52 1
41 2 50 1
42 50 51 2
43 3 51 1
44 18 52 1
45 21 52 1
46 20 53 1
47 53 57 1
48 13 54 1
49 19 54 1
50 25 54 1
51 54 55 1
52 24 55 1
53 55 56 1
54 55 60 1
55 23 56 1
56 56 57 2
57 57 58 1
58 58 59 2
59 59 60 1
60 59 62 1
61 60 61 1
62 26 61 1
63 28 61 1
64 29 61 1
65 22 62 1
66 27 62 1
@<TRIPOS>SUBSTRUCTURE
1	UNK0	1	GROUP	1 ****	UNK
