# created with PyMOL 2.5.0
@<TRIPOS>MOLECULE
ZINC00538264
62 66 1                 
SMALL
USER_CHARGES
@<TRIPOS>ATOM
1	 H12	13.340	-3.850	17.370	 H	1	UNK0	0.000	
2	 H15	3.790	2.260	15.660	 H	1	UNK0	0.000	
3	 H16	5.370	1.240	17.280	 H	1	UNK0	0.000	
4	 H05	13.420	-1.950	18.720	 H	1	UNK0	0.000	
5	 H04	12.590	0.410	18.150	 H	1	UNK0	0.000	
6	 H03	11.790	-0.210	19.590	 H	1	UNK0	0.000	
7	 H02	11.640	2.180	19.080	 H	1	UNK0	0.000	
8	 H01	10.600	4.450	19.290	 H	1	UNK0	0.000	
9	 H13	8.050	0.350	14.030	 H	1	UNK0	0.000	
10	 H08	6.720	-1.760	15.910	 H	1	UNK0	0.000	
11	 H11	11.950	-4.390	16.560	 H	1	UNK0	0.000	
12	 H10	7.860	-2.880	16.600	 H	1	UNK0	0.000	
13	 H21	4.730	6.460	21.220	 H	1	UNK0	0.000	
14	 H09	8.190	-2.160	15.010	 H	1	UNK0	0.000	
15	 H07	7.000	3.080	17.310	 H	1	UNK0	0.000	
16	 H06	9.940	-3.180	16.480	 H	1	UNK0	0.000	
17	 H14	6.460	1.360	12.450	 H	1	UNK0	0.000	
18	 H17	4.280	2.200	12.120	 H	1	UNK0	0.000	
19	 H20	4.770	6.040	22.940	 H	1	UNK0	0.000	
20	 H19	8.860	5.870	18.250	 H	1	UNK0	0.000	
21	 H18	3.220	2.560	13.380	 H	1	UNK0	0.000	
22	 H29	8.180	8.830	22.300	 H	1	UNK0	0.000	
23	 H24	6.550	3.900	20.180	 H	1	UNK0	0.000	
24	 H23	6.800	4.660	22.590	 H	1	UNK0	0.000	
25	 H22	4.470	4.780	21.730	 H	1	UNK0	0.000	
26	 H25	6.750	6.290	24.200	 H	1	UNK0	0.000	
27	 H28	9.160	8.730	20.920	 H	1	UNK0	0.000	
28	 H27	7.460	7.880	23.910	 H	1	UNK0	0.000	
29	 H26	8.490	6.440	23.870	 H	1	UNK0	0.000	
30	  C1	8.730	3.920	18.290	C.2	1	UNK0	0.000	
31	  C2	10.070	3.660	18.770	C.2	1	UNK0	0.000	
32	  C3	10.660	2.350	18.650	C.2	1	UNK0	0.000	
33	  C4	9.930	1.260	18.010	C.2	1	UNK0	0.000	
34	  C5	10.530	-0.060	17.890	C.2	1	UNK0	0.000	
35	  C6	11.880	-0.330	18.510	C.3	1	UNK0	0.000	
36	  C7	12.470	-1.690	18.270	C.2	1	UNK0	0.000	
37	  C8	11.760	-2.690	17.530	C.2	1	UNK0	0.000	
38	  C9	10.460	-2.400	17.010	C.2	1	UNK0	0.000	
39	 C10	9.800	-1.110	17.180	C.2	1	UNK0	0.000	
40	  N1	8.520	-0.870	16.650	N.pl3	1	UNK0	0.000	
41	 C11	7.920	0.410	16.720	C.2	1	UNK0	0.000	
42	 C12	8.590	1.510	17.440	C.2	1	UNK0	0.000	
43	 C13	8.000	2.850	17.630	C.2	1	UNK0	0.000	
44	 C14	7.790	-1.970	16.010	C.3	1	UNK0	0.000	
45	  N2	12.320	-3.920	17.390	N.pl3	1	UNK0	0.000	
46	 C15	6.830	0.720	15.770	C.2	1	UNK0	0.000	
47	 C16	7.100	0.730	14.400	C.2	1	UNK0	0.000	
48	 C17	6.200	1.290	13.500	C.2	1	UNK0	0.000	
49	 C18	4.980	1.800	13.940	C.2	1	UNK0	0.000	
50	 C19	4.700	1.810	15.310	C.2	1	UNK0	0.000	
51	 C20	5.600	1.230	16.220	C.2	1	UNK0	0.000	
52	  N3	4.190	2.550	13.080	N.pl3	1	UNK0	0.000	
53	  N4	8.160	5.160	18.450	N.pl3	1	UNK0	0.000	
54	 C21	5.040	5.690	21.940	C.3	1	UNK0	0.000	
55	 C22	6.530	5.430	21.850	C.3	1	UNK0	0.000	
56	 C23	6.880	4.880	20.500	C.2	1	UNK0	0.000	
57	 C24	7.740	5.660	19.650	C.2	1	UNK0	0.000	
58	  N5	8.190	6.890	20.020	N.2	1	UNK0	0.000	
59	 C25	8.060	7.230	21.260	C.2	1	UNK0	0.000	
60	  N6	7.250	6.670	22.200	N.pl3	1	UNK0	0.000	
61	 C26	7.510	6.830	23.610	C.3	1	UNK0	0.000	
62	  N7	8.750	8.250	21.700	N.pl3	1	UNK0	0.000	
@<TRIPOS>BOND
1 30 31 1
2 30 43 2
3 30 53 1
4 8 31 1
5 31 32 2
6 7 32 1
7 32 33 1
8 33 34 2
9 33 42 1
10 34 35 1
11 34 39 1
12 5 35 1
13 6 35 1
14 35 36 1
15 4 36 1
16 36 37 2
17 37 38 1
18 37 45 1
19 16 38 1
20 38 39 2
21 39 40 1
22 40 41 1
23 40 44 1
24 41 42 2
25 41 46 1
26 42 43 1
27 15 43 1
28 10 44 1
29 12 44 1
30 14 44 1
31 1 45 1
32 11 45 1
33 46 47 2
34 46 51 1
35 9 47 1
36 47 48 1
37 17 48 1
38 48 49 2
39 49 50 1
40 49 52 1
41 2 50 1
42 50 51 2
43 3 51 1
44 18 52 1
45 21 52 1
46 20 53 1
47 53 57 1
48 13 54 1
49 19 54 1
50 25 54 1
51 54 55 1
52 24 55 1
53 55 56 1
54 55 60 1
55 23 56 1
56 56 57 2
57 57 58 1
58 58 59 2
59 59 60 1
60 59 62 1
61 60 61 1
62 26 61 1
63 28 61 1
64 29 61 1
65 22 62 1
66 27 62 1
@<TRIPOS>SUBSTRUCTURE
1	UNK0	1	GROUP	1 ****	UNK
