# created with PyMOL 2.5.0
@<TRIPOS>MOLECULE
data/FXA/cocry_dataset/1f0r_815_LIG.pdb
50 54 1                 
SMALL
USER_CHARGES
@<TRIPOS>ATOM
1	 H10	12.035	9.385	25.589	 H	1	UNK0	0.000	
2	 H11	4.750	2.933	18.123	 H	1	UNK0	0.000	
3	 H15	5.663	0.503	17.279	 H	1	UNK0	0.000	
4	 H16	11.198	-1.499	17.154	 H	1	UNK0	0.000	
5	 H17	10.958	0.192	18.912	 H	1	UNK0	0.000	
6	 H04	5.978	2.709	21.791	 H	1	UNK0	0.000	
7	 H18	6.107	-0.798	15.819	 H	1	UNK0	0.000	
8	 H19	7.246	-1.881	15.051	 H	1	UNK0	0.000	
9	 H05	4.248	2.582	21.776	 H	1	UNK0	0.000	
10	 H13	7.325	2.874	20.456	 H	1	UNK0	0.000	
11	 H03	5.385	4.626	23.110	 H	1	UNK0	0.000	
12	 H02	3.899	4.909	22.267	 H	1	UNK0	0.000	
13	 H14	9.522	1.788	20.119	 H	1	UNK0	0.000	
14	 H01	6.774	5.532	21.301	 H	1	UNK0	0.000	
15	 H08	8.593	6.982	26.390	 H	1	UNK0	0.000	
16	 H07	9.192	9.752	21.637	 H	1	UNK0	0.000	
17	 H06	4.578	7.120	20.733	 H	1	UNK0	0.000	
18	 H09	10.854	7.846	27.066	 H	1	UNK0	0.000	
19	 H12	4.263	1.723	19.377	 H	1	UNK0	0.000	
20	   N	5.033	3.519	20.075	N.pl3	1	UNK0	0.000	
21	   C	5.331	4.856	19.812	C.2	1	UNK0	0.000	
22	   O	5.366	5.388	18.714	O.2	1	UNK0	0.000	
23	   C	5.695	5.495	21.147	C.3	1	UNK0	0.000	
24	   C	4.935	4.603	22.118	C.3	1	UNK0	0.000	
25	   C	5.072	3.233	21.485	C.3	1	UNK0	0.000	
26	   N	5.392	6.923	21.298	N.3	1	UNK0	0.000	
27	   S	6.584	8.030	20.866	S.o2	1	UNK0	0.000	
28	   O	7.403	7.414	19.850	O.2	1	UNK0	0.000	
29	   O	5.935	9.301	20.625	O.2	1	UNK0	0.000	
30	   C	7.654	8.328	22.251	C.2	1	UNK0	0.000	
31	   C	8.804	9.080	22.401	C.2	1	UNK0	0.000	
32	   C	9.425	8.877	23.669	C.2	1	UNK0	0.000	
33	   C	8.683	8.016	24.476	C.2	1	UNK0	0.000	
34	   C	9.167	7.638	25.735	C.2	1	UNK0	0.000	
35	   C	10.408	8.134	26.114	C.2	1	UNK0	0.000	
36	   C	11.070	9.000	25.261	C.2	1	UNK0	0.000	
37	   N	10.618	9.406	24.056	N.2	1	UNK0	0.000	
38	   S	7.228	7.537	23.704	S.3	1	UNK0	0.000	
39	   C	5.002	2.465	19.075	C.3	1	UNK0	0.000	
40	   C	7.437	2.117	19.680	C.2	1	UNK0	0.000	
41	   C	8.680	1.506	19.486	C.2	1	UNK0	0.000	
42	   C	8.860	0.536	18.488	C.2	1	UNK0	0.000	
43	   C	7.773	0.172	17.667	C.2	1	UNK0	0.000	
44	   C	6.515	0.793	17.895	C.2	1	UNK0	0.000	
45	   C	6.335	1.769	18.891	C.2	1	UNK0	0.000	
46	   C	8.027	-0.790	16.662	C.2	1	UNK0	0.000	
47	   N	9.219	-1.388	16.475	N.2	1	UNK0	0.000	
48	   C	10.227	-1.021	17.291	C.2	1	UNK0	0.000	
49	   C	10.103	-0.074	18.290	C.2	1	UNK0	0.000	
50	   N	7.034	-1.194	15.760	N.pl3	1	UNK0	0.000	
@<TRIPOS>BOND
1 20 21 1
2 20 25 1
3 21 22 2
4 21 23 1
5 14 23 1
6 23 24 1
7 23 26 1
8 11 24 1
9 12 24 1
10 24 25 1
11 6 25 1
12 9 25 1
13 17 26 1
14 26 27 1
15 27 28 2
16 27 29 2
17 27 30 1
18 30 31 2
19 30 38 1
20 16 31 1
21 31 32 1
22 32 33 1
23 32 37 2
24 33 34 2
25 33 38 1
26 15 34 1
27 34 35 1
28 18 35 1
29 35 36 2
30 1 36 1
31 36 37 1
32 2 39 1
33 19 39 1
34 20 39 1
35 10 40 1
36 40 41 1
37 40 45 2
38 13 41 1
39 41 42 2
40 42 43 1
41 42 49 1
42 43 44 2
43 43 46 1
44 3 44 1
45 44 45 1
46 39 45 1
47 46 47 2
48 46 50 1
49 47 48 1
50 4 48 1
51 48 49 2
52 5 49 1
53 7 50 1
54 8 50 1
@<TRIPOS>SUBSTRUCTURE
1	UNK0	1	GROUP	1 ****	UNK
