# created with PyMOL 2.5.0
@<TRIPOS>MOLECULE
data/FXA/cocry_dataset/1f0r_815_LIG.pdb
50 54 1                 
SMALL
USER_CHARGES
@<TRIPOS>ATOM
1	 H10	11.069	-0.579	17.887	 H	1	UNK0	0.000	
2	 H11	5.968	8.868	25.011	 H	1	UNK0	0.000	
3	 H15	7.619	7.202	26.237	 H	1	UNK0	0.000	
4	 H16	13.426	7.376	27.186	 H	1	UNK0	0.000	
5	 H17	12.846	8.803	25.279	 H	1	UNK0	0.000	
6	 H04	3.994	7.616	23.290	 H	1	UNK0	0.000	
7	 H18	8.323	5.996	27.676	 H	1	UNK0	0.000	
8	 H19	9.656	5.423	28.653	 H	1	UNK0	0.000	
9	 H05	4.424	6.957	24.836	 H	1	UNK0	0.000	
10	 H13	8.754	9.879	23.071	 H	1	UNK0	0.000	
11	 H03	3.703	5.270	22.866	 H	1	UNK0	0.000	
12	 H02	4.956	4.784	23.958	 H	1	UNK0	0.000	
13	 H14	11.118	9.718	23.781	 H	1	UNK0	0.000	
14	 H01	5.275	6.016	21.135	 H	1	UNK0	0.000	
15	 H08	7.075	-0.628	16.366	 H	1	UNK0	0.000	
16	 H07	8.555	2.598	20.612	 H	1	UNK0	0.000	
17	 H06	7.176	4.394	21.533	 H	1	UNK0	0.000	
18	 H09	9.465	-1.393	16.239	 H	1	UNK0	0.000	
19	 H12	6.498	9.379	23.358	 H	1	UNK0	0.000	
20	   N	6.074	7.364	23.611	N.pl3	1	UNK0	0.000	
21	   C	6.729	6.585	22.656	C.2	1	UNK0	0.000	
22	   O	7.894	6.695	22.307	O.2	1	UNK0	0.000	
23	   C	5.687	5.640	22.071	C.3	1	UNK0	0.000	
24	   C	4.695	5.546	23.222	C.3	1	UNK0	0.000	
25	   C	4.705	6.953	23.783	C.3	1	UNK0	0.000	
26	   N	6.170	4.336	21.602	N.3	1	UNK0	0.000	
27	   S	5.597	3.770	20.124	S.o2	1	UNK0	0.000	
28	   O	4.317	3.149	20.363	O.2	1	UNK0	0.000	
29	   O	5.733	4.843	19.162	O.2	1	UNK0	0.000	
30	   C	6.666	2.488	19.520	C.2	1	UNK0	0.000	
31	   C	7.974	2.146	19.809	C.2	1	UNK0	0.000	
32	   C	8.477	1.136	18.938	C.2	1	UNK0	0.000	
33	   C	7.503	0.690	18.045	C.2	1	UNK0	0.000	
34	   C	7.826	-0.252	17.060	C.2	1	UNK0	0.000	
35	   C	9.145	-0.688	17.006	C.2	1	UNK0	0.000	
36	   C	10.045	-0.210	17.944	C.2	1	UNK0	0.000	
37	   N	9.758	0.674	18.921	N.2	1	UNK0	0.000	
38	   S	5.996	1.457	18.334	S.3	1	UNK0	0.000	
39	   C	6.574	8.622	24.138	C.3	1	UNK0	0.000	
40	   C	9.018	9.251	23.922	C.2	1	UNK0	0.000	
41	   C	10.355	9.156	24.321	C.2	1	UNK0	0.000	
42	   C	10.730	8.348	25.405	C.2	1	UNK0	0.000	
43	   C	9.745	7.619	26.102	C.2	1	UNK0	0.000	
44	   C	8.390	7.746	25.691	C.2	1	UNK0	0.000	
45	   C	8.015	8.551	24.601	C.2	1	UNK0	0.000	
46	   C	10.191	6.801	27.167	C.2	1	UNK0	0.000	
47	   N	11.476	6.712	27.561	N.2	1	UNK0	0.000	
48	   C	12.383	7.435	26.876	C.2	1	UNK0	0.000	
49	   C	12.067	8.249	25.804	C.2	1	UNK0	0.000	
50	   N	9.308	5.999	27.900	N.pl3	1	UNK0	0.000	
@<TRIPOS>BOND
1 20 21 1
2 20 25 1
3 21 22 2
4 21 23 1
5 14 23 1
6 23 24 1
7 23 26 1
8 11 24 1
9 12 24 1
10 24 25 1
11 6 25 1
12 9 25 1
13 17 26 1
14 26 27 1
15 27 28 2
16 27 29 2
17 27 30 1
18 30 31 2
19 30 38 1
20 16 31 1
21 31 32 1
22 32 33 1
23 32 37 2
24 33 34 2
25 33 38 1
26 15 34 1
27 34 35 1
28 18 35 1
29 35 36 2
30 1 36 1
31 36 37 1
32 2 39 1
33 19 39 1
34 20 39 1
35 10 40 1
36 40 41 1
37 40 45 2
38 13 41 1
39 41 42 2
40 42 43 1
41 42 49 1
42 43 44 2
43 43 46 1
44 3 44 1
45 44 45 1
46 39 45 1
47 46 47 2
48 46 50 1
49 47 48 1
50 4 48 1
51 48 49 2
52 5 49 1
53 7 50 1
54 8 50 1
@<TRIPOS>SUBSTRUCTURE
1	UNK0	1	GROUP	1 ****	UNK
