# created with PyMOL 2.5.0
@<TRIPOS>MOLECULE
data/FXA/cocry_dataset/1f0r_815_LIG.pdb
50 54 1                 
SMALL
USER_CHARGES
@<TRIPOS>ATOM
1	   N	6.074	7.364	23.611	N.pl3	1	UNK0	0.000	
2	   C	6.729	6.585	22.656	C.2	1	UNK0	0.000	
3	   O	7.894	6.695	22.307	O.2	1	UNK0	0.000	
4	   C	5.687	5.640	22.071	C.3	1	UNK0	0.000	
5	   C	4.695	5.546	23.222	C.3	1	UNK0	0.000	
6	   C	4.705	6.953	23.783	C.3	1	UNK0	0.000	
7	   N	6.170	4.336	21.602	N.3	1	UNK0	0.000	
8	   S	5.597	3.770	20.124	S.o2	1	UNK0	0.000	
9	   O	4.317	3.149	20.363	O.2	1	UNK0	0.000	
10	   O	5.733	4.843	19.162	O.2	1	UNK0	0.000	
11	   C	6.666	2.488	19.520	C.2	1	UNK0	0.000	
12	   C	7.974	2.146	19.809	C.2	1	UNK0	0.000	
13	   C	8.477	1.136	18.938	C.2	1	UNK0	0.000	
14	   C	7.503	0.690	18.045	C.2	1	UNK0	0.000	
15	   C	7.826	-0.252	17.060	C.2	1	UNK0	0.000	
16	   C	9.145	-0.688	17.006	C.2	1	UNK0	0.000	
17	   C	10.045	-0.210	17.944	C.2	1	UNK0	0.000	
18	   N	9.758	0.674	18.921	N.2	1	UNK0	0.000	
19	   S	5.996	1.457	18.334	S.3	1	UNK0	0.000	
20	   C	6.574	8.622	24.138	C.3	1	UNK0	0.000	
21	   C	9.018	9.251	23.922	C.2	1	UNK0	0.000	
22	   C	10.355	9.156	24.321	C.2	1	UNK0	0.000	
23	   C	10.730	8.348	25.405	C.2	1	UNK0	0.000	
24	   C	9.745	7.619	26.102	C.2	1	UNK0	0.000	
25	   C	8.390	7.746	25.691	C.2	1	UNK0	0.000	
26	   C	8.015	8.551	24.601	C.2	1	UNK0	0.000	
27	   C	10.191	6.801	27.167	C.2	1	UNK0	0.000	
28	   N	11.476	6.712	27.561	N.2	1	UNK0	0.000	
29	   C	12.383	7.435	26.876	C.2	1	UNK0	0.000	
30	   C	12.067	8.249	25.804	C.2	1	UNK0	0.000	
31	   N	9.308	5.999	27.900	N.pl3	1	UNK0	0.000	
32	 H01	5.275	6.016	21.135	 H	1	UNK0	0.000	
33	 H02	4.956	4.784	23.958	 H	1	UNK0	0.000	
34	 H03	3.703	5.270	22.866	 H	1	UNK0	0.000	
35	 H04	3.994	7.616	23.290	 H	1	UNK0	0.000	
36	 H05	4.424	6.957	24.836	 H	1	UNK0	0.000	
37	 H06	7.176	4.394	21.533	 H	1	UNK0	0.000	
38	 H07	8.555	2.598	20.612	 H	1	UNK0	0.000	
39	 H08	7.075	-0.628	16.366	 H	1	UNK0	0.000	
40	 H09	9.465	-1.393	16.239	 H	1	UNK0	0.000	
41	 H10	11.069	-0.579	17.887	 H	1	UNK0	0.000	
42	 H11	6.533	9.349	23.328	 H	1	UNK0	0.000	
43	 H12	5.953	8.914	24.985	 H	1	UNK0	0.000	
44	 H13	8.754	9.879	23.071	 H	1	UNK0	0.000	
45	 H14	11.118	9.718	23.781	 H	1	UNK0	0.000	
46	 H15	7.619	7.202	26.237	 H	1	UNK0	0.000	
47	 H16	13.426	7.376	27.186	 H	1	UNK0	0.000	
48	 H17	12.846	8.803	25.279	 H	1	UNK0	0.000	
49	 H18	8.323	5.996	27.676	 H	1	UNK0	0.000	
50	 H19	9.656	5.423	28.653	 H	1	UNK0	0.000	
@<TRIPOS>BOND
1 21 22 1
2 21 26 2
3 22 23 2
4 23 24 1
5 23 30 1
6 24 25 2
7 24 27 1
8 25 26 1
9 20 26 1
10 1 20 1
11 1 2 1
12 1 6 1
13 2 3 2
14 2 4 1
15 4 5 1
16 4 7 1
17 5 6 1
18 7 8 1
19 8 9 2
20 8 10 2
21 8 11 1
22 11 12 2
23 11 19 1
24 12 13 1
25 13 14 1
26 13 18 2
27 14 15 2
28 14 19 1
29 15 16 1
30 16 17 2
31 17 18 1
32 27 28 2
33 27 31 1
34 28 29 1
35 29 30 2
36 4 32 1
37 5 33 1
38 5 34 1
39 6 35 1
40 6 36 1
41 7 37 1
42 12 38 1
43 15 39 1
44 16 40 1
45 17 41 1
46 20 42 1
47 20 43 1
48 21 44 1
49 22 45 1
50 25 46 1
51 29 47 1
52 30 48 1
53 31 49 1
54 31 50 1
@<TRIPOS>SUBSTRUCTURE
1	UNK0	1	GROUP	1 ****	UNK
