data/FXA/cocry_dataset/1f0r_815_LIG.pdb


 34 38  0  0  0  0  0  0  0  0999 V2000
    6.0737    7.3637   23.6107 N   0  0  0  0  0  0  0  0  0  0  0  0
    6.7295    6.5853   22.6561 C   0  0  0  0  0  0  0  0  0  0  0  0
    7.8937    6.6953   22.3066 O   0  0  0  0  0  0  0  0  0  0  0  0
    5.6872    5.6398   22.0709 C   0  0  0  0  0  0  0  0  0  0  0  0
    4.6953    5.5457   23.2222 C   0  0  0  0  0  0  0  0  0  0  0  0
    4.7050    6.9532   23.7832 C   0  0  0  0  0  0  0  0  0  0  0  0
    6.1703    4.3360   21.6021 N   0  0  0  0  0  0  0  0  0  0  0  0
    6.1914    3.5931   22.3031 H   0  0  0  0  0  0  0  0  0  0  0  0
    5.5971    3.7702   20.1240 S   0  0  0  0  0  0  0  0  0  0  0  0
    4.3171    3.1487   20.3627 O   0  0  0  0  0  0  0  0  0  0  0  0
    5.7330    4.8431   19.1617 O   0  0  0  0  0  0  0  0  0  0  0  0
    6.6662    2.4876   19.5199 C   0  0  0  0  0  0  0  0  0  0  0  0
    7.9741    2.1458   19.8088 C   0  0  0  0  0  0  0  0  0  0  0  0
    8.4772    1.1356   18.9376 C   0  0  0  0  0  0  0  0  0  0  0  0
    7.5029    0.6904   18.0448 C   0  0  0  0  0  0  0  0  0  0  0  0
    7.8263   -0.2523   17.0602 C   0  0  0  0  0  0  0  0  0  0  0  0
    9.1452   -0.6878   17.0064 C   0  0  0  0  0  0  0  0  0  0  0  0
   10.0446   -0.2104   17.9436 C   0  0  0  0  0  0  0  0  0  0  0  0
    9.7578    0.6741   18.9213 N   0  0  0  0  0  0  0  0  0  0  0  0
    5.9956    1.4569   18.3345 S   0  0  0  0  0  0  0  0  0  0  0  0
    6.5741    8.6220   24.1384 C   0  0  0  0  0  0  0  0  0  0  0  0
    9.0183    9.2514   23.9223 C   0  0  0  0  0  0  0  0  0  0  0  0
   10.3553    9.1561   24.3210 C   0  0  0  0  0  0  0  0  0  0  0  0
   10.7301    8.3480   25.4054 C   0  0  0  0  0  0  0  0  0  0  0  0
    9.7452    7.6186   26.1022 C   0  0  0  0  0  0  0  0  0  0  0  0
    8.3904    7.7456   25.6912 C   0  0  0  0  0  0  0  0  0  0  0  0
    8.0151    8.5510   24.6013 C   0  0  0  0  0  0  0  0  0  0  0  0
   10.1905    6.8013   27.1666 C   0  0  0  0  0  0  0  0  0  0  0  0
   11.4757    6.7116   27.5606 N   0  0  0  0  0  0  0  0  0  0  0  0
   12.3827    7.4354   26.8761 C   0  0  0  0  0  0  0  0  0  0  0  0
   12.0672    8.2492   25.8037 C   0  0  0  0  0  0  0  0  0  0  0  0
    9.3077    5.9989   27.9000 N   0  0  0  0  0  0  0  0  0  0  0  0
    8.8275    5.3553   27.2815 H   0  0  0  0  0  0  0  0  0  0  0  0
    9.8900    5.4940   28.5662 H   0  0  0  0  0  0  0  0  0  0  0  0
 22 23  1  0  0  0
 22 27  2  0  0  0
 23 24  2  0  0  0
 24 25  1  0  0  0
 24 31  1  0  0  0
 25 26  2  0  0  0
 25 28  1  0  0  0
 26 27  1  0  0  0
 27 21  1  0  0  0
 21  1  1  0  0  0
  1  2  1  0  0  0
  1  6  1  0  0  0
  2  3  2  0  0  0
  2  4  1  0  0  0
  4  5  1  0  0  0
  4  7  1  0  0  0
  5  6  1  0  0  0
  7  9  1  0  0  0
  7  8  1  0  0  0
  9 10  2  0  0  0
  9 11  2  0  0  0
  9 12  1  0  0  0
 12 13  2  0  0  0
 12 20  1  0  0  0
 13 14  1  0  0  0
 14 15  1  0  0  0
 14 19  2  0  0  0
 15 16  2  0  0  0
 15 20  1  0  0  0
 16 17  1  0  0  0
 17 18  2  0  0  0
 18 19  1  0  0  0
 28 29  2  0  0  0
 28 32  1  0  0  0
 29 30  1  0  0  0
 30 31  2  0  0  0
 32 33  1  0  0  0
 32 34  1  0  0  0
M  END
> <minimizedAffinity>
-12.28560

$$$$
data/FXA/cocry_dataset/1f0r_815_LIG.pdb


 34 38  0  0  0  0  0  0  0  0999 V2000
    6.1039    3.5142   21.4406 N   0  0  0  0  0  0  0  0  0  0  0  0
    6.7751    4.6572   21.0047 C   0  0  0  0  0  0  0  0  0  0  0  0
    7.8372    4.6894   20.4039 O   0  0  0  0  0  0  0  0  0  0  0  0
    5.9749    5.8533   21.5065 C   0  0  0  0  0  0  0  0  0  0  0  0
    4.5823    5.2485   21.6218 C   0  0  0  0  0  0  0  0  0  0  0  0
    4.8712    3.8426   22.1071 C   0  0  0  0  0  0  0  0  0  0  0  0
    6.0228    7.0687   20.6859 N   0  0  0  0  0  0  0  0  0  0  0  0
    5.4571    7.0516   19.8354 H   0  0  0  0  0  0  0  0  0  0  0  0
    5.9067    8.5529   21.4715 S   0  0  0  0  0  0  0  0  0  0  0  0
    6.1253    9.5847   20.4869 O   0  0  0  0  0  0  0  0  0  0  0  0
    4.6993    8.5329   22.2697 O   0  0  0  0  0  0  0  0  0  0  0  0
    7.2231    8.7081   22.6531 C   0  0  0  0  0  0  0  0  0  0  0  0
    8.4698    9.3020   22.5929 C   0  0  0  0  0  0  0  0  0  0  0  0
    9.2624    9.0206   23.7441 C   0  0  0  0  0  0  0  0  0  0  0  0
    8.5604    8.2659   24.6834 C   0  0  0  0  0  0  0  0  0  0  0  0
    9.1950    7.8282   25.8532 C   0  0  0  0  0  0  0  0  0  0  0  0
   10.5367    8.1563   26.0090 C   0  0  0  0  0  0  0  0  0  0  0  0
   11.1528    8.9262   25.0380 C   0  0  0  0  0  0  0  0  0  0  0  0
   10.5620    9.3876   23.9160 N   0  0  0  0  0  0  0  0  0  0  0  0
    6.9468    7.9822   24.1743 S   0  0  0  0  0  0  0  0  0  0  0  0
    6.6915    2.1870   21.5153 C   0  0  0  0  0  0  0  0  0  0  0  0
    5.6029    1.2038   19.4500 C   0  0  0  0  0  0  0  0  0  0  0  0
    5.6642    0.5195   18.2319 C   0  0  0  0  0  0  0  0  0  0  0  0
    6.8915    0.0863   17.7075 C   0  0  0  0  0  0  0  0  0  0  0  0
    8.0811    0.3415   18.4197 C   0  0  0  0  0  0  0  0  0  0  0  0
    7.9968    1.0552   19.6461 C   0  0  0  0  0  0  0  0  0  0  0  0
    6.7665    1.4848   20.1747 C   0  0  0  0  0  0  0  0  0  0  0  0
    9.2812   -0.1454   17.8525 C   0  0  0  0  0  0  0  0  0  0  0  0
    9.3476   -0.7980   16.6757 N   0  0  0  0  0  0  0  0  0  0  0  0
    8.1890   -1.0092   16.0213 C   0  0  0  0  0  0  0  0  0  0  0  0
    6.9543   -0.6009   16.4908 C   0  0  0  0  0  0  0  0  0  0  0  0
   10.5166    0.0106   18.4930 N   0  0  0  0  0  0  0  0  0  0  0  0
   10.4887   -0.4175   19.4113 H   0  0  0  0  0  0  0  0  0  0  0  0
   11.1937   -0.4603   17.8948 H   0  0  0  0  0  0  0  0  0  0  0  0
 22 23  1  0  0  0
 22 27  2  0  0  0
 23 24  2  0  0  0
 24 25  1  0  0  0
 24 31  1  0  0  0
 25 26  2  0  0  0
 25 28  1  0  0  0
 26 27  1  0  0  0
 27 21  1  0  0  0
 21  1  1  0  0  0
  1  2  1  0  0  0
  1  6  1  0  0  0
  2  3  2  0  0  0
  2  4  1  0  0  0
  4  5  1  0  0  0
  4  7  1  0  0  0
  5  6  1  0  0  0
  7  9  1  0  0  0
  7  8  1  0  0  0
  9 10  2  0  0  0
  9 11  2  0  0  0
  9 12  1  0  0  0
 12 13  2  0  0  0
 12 20  1  0  0  0
 13 14  1  0  0  0
 14 15  1  0  0  0
 14 19  2  0  0  0
 15 16  2  0  0  0
 15 20  1  0  0  0
 16 17  1  0  0  0
 17 18  2  0  0  0
 18 19  1  0  0  0
 28 29  2  0  0  0
 28 32  1  0  0  0
 29 30  1  0  0  0
 30 31  2  0  0  0
 32 33  1  0  0  0
 32 34  1  0  0  0
M  END
> <minimizedAffinity>
-11.33797

$$$$
data/FXA/cocry_dataset/1f0r_815_LIG.pdb


 34 38  0  0  0  0  0  0  0  0999 V2000
    5.0334    3.5187   20.0753 N   0  0  0  0  0  0  0  0  0  0  0  0
    5.3313    4.8562   19.8117 C   0  0  0  0  0  0  0  0  0  0  0  0
    5.3663    5.3883   18.7138 O   0  0  0  0  0  0  0  0  0  0  0  0
    5.6955    5.4951   21.1466 C   0  0  0  0  0  0  0  0  0  0  0  0
    4.9346    4.6027   22.1177 C   0  0  0  0  0  0  0  0  0  0  0  0
    5.0723    3.2327   21.4854 C   0  0  0  0  0  0  0  0  0  0  0  0
    5.3922    6.9227   21.2979 N   0  0  0  0  0  0  0  0  0  0  0  0
    4.9356    7.1884   22.1724 H   0  0  0  0  0  0  0  0  0  0  0  0
    6.5841    8.0299   20.8657 S   0  0  0  0  0  0  0  0  0  0  0  0
    7.4025    7.4138   19.8496 O   0  0  0  0  0  0  0  0  0  0  0  0
    5.9347    9.3011   20.6252 O   0  0  0  0  0  0  0  0  0  0  0  0
    7.6539    8.3276   22.2512 C   0  0  0  0  0  0  0  0  0  0  0  0
    8.8038    9.0799   22.4014 C   0  0  0  0  0  0  0  0  0  0  0  0
    9.4246    8.8774   23.6687 C   0  0  0  0  0  0  0  0  0  0  0  0
    8.6826    8.0160   24.4763 C   0  0  0  0  0  0  0  0  0  0  0  0
    9.1666    7.6376   25.7353 C   0  0  0  0  0  0  0  0  0  0  0  0
   10.4085    8.1339   26.1140 C   0  0  0  0  0  0  0  0  0  0  0  0
   11.0698    8.9998   25.2609 C   0  0  0  0  0  0  0  0  0  0  0  0
   10.6176    9.4063   24.0563 N   0  0  0  0  0  0  0  0  0  0  0  0
    7.2276    7.5367   23.7038 S   0  0  0  0  0  0  0  0  0  0  0  0
    5.0020    2.4649   19.0750 C   0  0  0  0  0  0  0  0  0  0  0  0
    7.4372    2.1168   19.6798 C   0  0  0  0  0  0  0  0  0  0  0  0
    8.6801    1.5059   19.4856 C   0  0  0  0  0  0  0  0  0  0  0  0
    8.8602    0.5356   18.4880 C   0  0  0  0  0  0  0  0  0  0  0  0
    7.7734    0.1724   17.6667 C   0  0  0  0  0  0  0  0  0  0  0  0
    6.5148    0.7925   17.8947 C   0  0  0  0  0  0  0  0  0  0  0  0
    6.3352    1.7688   18.8907 C   0  0  0  0  0  0  0  0  0  0  0  0
    8.0266   -0.7898   16.6621 C   0  0  0  0  0  0  0  0  0  0  0  0
    9.2194   -1.3877   16.4753 N   0  0  0  0  0  0  0  0  0  0  0  0
   10.2275   -1.0211   17.2905 C   0  0  0  0  0  0  0  0  0  0  0  0
   10.1033   -0.0742   18.2903 C   0  0  0  0  0  0  0  0  0  0  0  0
    7.0344   -1.1937   15.7603 N   0  0  0  0  0  0  0  0  0  0  0  0
    6.6825   -0.3925   15.2488 H   0  0  0  0  0  0  0  0  0  0  0  0
    7.4912   -1.8522   15.1314 H   0  0  0  0  0  0  0  0  0  0  0  0
 22 23  1  0  0  0
 22 27  2  0  0  0
 23 24  2  0  0  0
 24 25  1  0  0  0
 24 31  1  0  0  0
 25 26  2  0  0  0
 25 28  1  0  0  0
 26 27  1  0  0  0
 27 21  1  0  0  0
 21  1  1  0  0  0
  1  2  1  0  0  0
  1  6  1  0  0  0
  2  3  2  0  0  0
  2  4  1  0  0  0
  4  5  1  0  0  0
  4  7  1  0  0  0
  5  6  1  0  0  0
  7  9  1  0  0  0
  7  8  1  0  0  0
  9 10  2  0  0  0
  9 11  2  0  0  0
  9 12  1  0  0  0
 12 13  2  0  0  0
 12 20  1  0  0  0
 13 14  1  0  0  0
 14 15  1  0  0  0
 14 19  2  0  0  0
 15 16  2  0  0  0
 15 20  1  0  0  0
 16 17  1  0  0  0
 17 18  2  0  0  0
 18 19  1  0  0  0
 28 29  2  0  0  0
 28 32  1  0  0  0
 29 30  1  0  0  0
 30 31  2  0  0  0
 32 33  1  0  0  0
 32 34  1  0  0  0
M  END
> <minimizedAffinity>
-11.25692

$$$$
