data/FXA/cocry_dataset/1f0r_815_LIG.pdb
 OpenBabel03092321123D

 34 38  0  0  0  0  0  0  0  0999 V2000
    5.0334    3.5187   20.0753 N   0  0  0  0  0  0  0  0  0  0  0  0
    5.3313    4.8562   19.8117 C   0  0  0  0  0  0  0  0  0  0  0  0
    5.3663    5.3883   18.7138 O   0  0  0  0  0  0  0  0  0  0  0  0
    5.6955    5.4951   21.1466 C   0  0  2  0  0  0  0  0  0  0  0  0
    4.9346    4.6027   22.1177 C   0  0  0  0  0  0  0  0  0  0  0  0
    5.0723    3.2327   21.4854 C   0  0  0  0  0  0  0  0  0  0  0  0
    5.3922    6.9227   21.2979 N   0  0  0  0  0  0  0  0  0  0  0  0
    4.9356    7.1884   22.1724 H   0  0  0  0  0  0  0  0  0  0  0  0
    6.5841    8.0299   20.8657 S   0  0  0  0  0  0  0  0  0  0  0  0
    7.4025    7.4138   19.8496 O   0  0  0  0  0  0  0  0  0  0  0  0
    5.9347    9.3011   20.6252 O   0  0  0  0  0  0  0  0  0  0  0  0
    7.6539    8.3276   22.2512 C   0  0  0  0  0  0  0  0  0  0  0  0
    8.8038    9.0799   22.4014 C   0  0  0  0  0  0  0  0  0  0  0  0
    9.4246    8.8774   23.6687 C   0  0  0  0  0  0  0  0  0  0  0  0
    8.6826    8.0160   24.4763 C   0  0  0  0  0  0  0  0  0  0  0  0
    9.1666    7.6376   25.7353 C   0  0  0  0  0  0  0  0  0  0  0  0
   10.4085    8.1339   26.1140 C   0  0  0  0  0  0  0  0  0  0  0  0
   11.0698    8.9998   25.2609 C   0  0  0  0  0  0  0  0  0  0  0  0
   10.6176    9.4063   24.0563 N   0  0  0  0  0  0  0  0  0  0  0  0
    7.2276    7.5367   23.7038 S   0  0  0  0  0  0  0  0  0  0  0  0
    5.0020    2.4649   19.0750 C   0  0  0  0  0  0  0  0  0  0  0  0
    7.4372    2.1168   19.6798 C   0  0  0  0  0  0  0  0  0  0  0  0
    8.6801    1.5059   19.4856 C   0  0  0  0  0  0  0  0  0  0  0  0
    8.8602    0.5356   18.4880 C   0  0  0  0  0  0  0  0  0  0  0  0
    7.7734    0.1724   17.6667 C   0  0  0  0  0  0  0  0  0  0  0  0
    6.5148    0.7925   17.8947 C   0  0  0  0  0  0  0  0  0  0  0  0
    6.3352    1.7688   18.8907 C   0  0  0  0  0  0  0  0  0  0  0  0
    8.0266   -0.7898   16.6621 C   0  0  0  0  0  0  0  0  0  0  0  0
    9.2194   -1.3877   16.4753 N   0  0  0  0  0  0  0  0  0  0  0  0
   10.2275   -1.0211   17.2905 C   0  0  0  0  0  0  0  0  0  0  0  0
   10.1033   -0.0742   18.2903 C   0  0  0  0  0  0  0  0  0  0  0  0
    7.0344   -1.1937   15.7603 N   0  0  0  0  0  0  0  0  0  0  0  0
    6.6825   -0.3925   15.2488 H   0  0  0  0  0  0  0  0  0  0  0  0
    7.4912   -1.8522   15.1314 H   0  0  0  0  0  0  0  0  0  0  0  0
  1  2  1  0  0  0  0
  1  6  1  0  0  0  0
  2  3  2  0  0  0  0
  2  4  1  0  0  0  0
  4  5  1  0  0  0  0
  4  7  1  6  0  0  0
  5  6  1  0  0  0  0
  7  9  1  0  0  0  0
  7  8  1  0  0  0  0
  9 10  2  0  0  0  0
  9 11  2  0  0  0  0
  9 12  1  0  0  0  0
 12 13  2  0  0  0  0
 12 20  1  0  0  0  0
 13 14  1  0  0  0  0
 14 15  1  0  0  0  0
 14 19  2  0  0  0  0
 15 16  2  0  0  0  0
 15 20  1  0  0  0  0
 16 17  1  0  0  0  0
 17 18  2  0  0  0  0
 18 19  1  0  0  0  0
 21  1  1  0  0  0  0
 22 23  1  0  0  0  0
 22 27  2  0  0  0  0
 23 24  2  0  0  0  0
 24 25  1  0  0  0  0
 24 31  1  0  0  0  0
 25 26  2  0  0  0  0
 25 28  1  0  0  0  0
 26 27  1  0  0  0  0
 27 21  1  0  0  0  0
 28 29  2  0  0  0  0
 28 32  1  0  0  0  0
 29 30  1  0  0  0  0
 30 31  2  0  0  0  0
 32 33  1  0  0  0  0
 32 34  1  0  0  0  0
M  END
>  <minimizedAffinity>
-11.25692

$$$$
