# created with PyMOL 2.5.0
@<TRIPOS>MOLECULE
data/FXA/cocry_dataset/1f0s_PR2_LIG.pdb
46 50 1                 
SMALL
USER_CHARGES
@<TRIPOS>ATOM
1	 H12	5.406	8.787	22.816	 H	1	UNK0	0.000	
2	 H09	10.868	-0.065	17.933	 H	1	UNK0	0.000	
3	 H04	4.784	5.944	19.669	 H	1	UNK0	0.000	
4	 H10	7.853	1.880	21.218	 H	1	UNK0	0.000	
5	 H15	11.343	9.643	26.184	 H	1	UNK0	0.000	
6	 H11	4.974	7.594	24.078	 H	1	UNK0	0.000	
7	 H13	8.016	9.341	22.466	 H	1	UNK0	0.000	
8	 H17	9.062	6.573	27.161	 H	1	UNK0	0.000	
9	 H05	6.393	5.306	19.509	 H	1	UNK0	0.000	
10	 H14	10.698	9.814	23.731	 H	1	UNK0	0.000	
11	 H03	6.020	7.809	20.493	 H	1	UNK0	0.000	
12	 H02	7.340	6.844	21.071	 H	1	UNK0	0.000	
13	 H01	6.223	3.971	21.587	 H	1	UNK0	0.000	
14	 H16	12.109	8.279	25.226	 H	1	UNK0	0.000	
15	 H08	9.429	-0.764	16.094	 H	1	UNK0	0.000	
16	 H07	6.942	-0.457	16.287	 H	1	UNK0	0.000	
17	 H06	3.506	3.962	21.348	 H	1	UNK0	0.000	
18	   C	5.407	4.649	21.336	C.3	1	UNK0	0.000	
19	   C	5.088	5.533	22.527	C.2	1	UNK0	0.000	
20	   O	4.520	5.205	23.554	O.2	1	UNK0	0.000	
21	   N	5.595	6.790	22.272	N.pl3	1	UNK0	0.000	
22	   C	6.253	6.871	20.996	C.3	1	UNK0	0.000	
23	   C	5.678	5.687	20.237	C.3	1	UNK0	0.000	
24	   N	4.372	3.700	20.899	N.3	1	UNK0	0.000	
25	   S	4.650	2.060	21.234	S.o2	1	UNK0	0.000	
26	   O	3.476	1.303	20.867	O.2	1	UNK0	0.000	
27	   O	5.200	2.007	22.571	O.2	1	UNK0	0.000	
28	   C	7.126	0.448	18.261	C.2	1	UNK0	0.000	
29	   C	7.614	-0.144	17.087	C.2	1	UNK0	0.000	
30	   C	8.991	-0.315	16.985	C.2	1	UNK0	0.000	
31	   C	9.795	0.094	18.034	C.2	1	UNK0	0.000	
32	   N	9.358	0.672	19.169	N.2	1	UNK0	0.000	
33	   C	8.012	0.851	19.260	C.2	1	UNK0	0.000	
34	   C	7.340	1.466	20.350	C.2	1	UNK0	0.000	
35	   C	5.970	1.483	20.192	C.2	1	UNK0	0.000	
36	   S	5.499	0.775	18.707	S.3	1	UNK0	0.000	
37	   C	5.669	7.833	23.273	C.3	1	UNK0	0.000	
38	   C	7.052	7.927	23.847	C.2	1	UNK0	0.000	
39	   C	8.038	8.726	23.366	C.2	1	UNK0	0.000	
40	   C	9.111	8.584	24.295	C.2	1	UNK0	0.000	
41	   C	10.323	9.097	24.461	C.2	1	UNK0	0.000	
42	   C	11.195	8.719	25.625	C.3	1	UNK0	0.000	
43	   N	10.626	7.766	26.594	N.2	1	UNK0	0.000	
44	   C	9.447	7.280	26.426	C.2	1	UNK0	0.000	
45	   C	8.599	7.642	25.277	C.2	1	UNK0	0.000	
46	   N	7.383	7.237	25.022	N.2	1	UNK0	0.000	
@<TRIPOS>BOND
1 13 18 1
2 18 19 1
3 18 23 1
4 18 24 1
5 19 20 2
6 19 21 1
7 21 22 1
8 21 37 1
9 11 22 1
10 12 22 1
11 22 23 1
12 3 23 1
13 9 23 1
14 17 24 1
15 24 25 1
16 25 26 2
17 25 27 2
18 28 29 1
19 28 33 2
20 28 36 1
21 16 29 1
22 29 30 2
23 15 30 1
24 30 31 1
25 2 31 1
26 31 32 2
27 32 33 1
28 33 34 1
29 4 34 1
30 34 35 2
31 25 35 1
32 35 36 1
33 1 37 1
34 6 37 1
35 37 38 1
36 38 39 2
37 38 46 1
38 7 39 1
39 39 40 1
40 40 41 2
41 40 45 1
42 10 41 1
43 41 42 1
44 5 42 1
45 14 42 1
46 42 43 1
47 43 44 2
48 8 44 1
49 44 45 1
50 45 46 2
@<TRIPOS>SUBSTRUCTURE
1	UNK0	1	GROUP	1 ****	UNK
