data/FXA/cocry_dataset/1f0s_PR2_LIG.pdb
 OpenBabel03092321123D

 30 34  0  0  0  0  0  0  0  0999 V2000
    4.9191    4.9152   21.4020 C   0  0  2  0  0  0  0  0  0  0  0  0
    5.9058    6.0616   21.2885 C   0  0  0  0  0  0  0  0  0  0  0  0
    6.7726    6.2040   20.4433 O   0  0  0  0  0  0  0  0  0  0  0  0
    5.6296    6.9630   22.2957 N   0  0  0  0  0  0  0  0  0  0  0  0
    4.5223    6.5504   23.1152 C   0  0  0  0  0  0  0  0  0  0  0  0
    4.4384    5.0567   22.8531 C   0  0  0  0  0  0  0  0  0  0  0  0
    5.4275    3.5556   21.1614 N   0  0  0  0  0  0  0  0  0  0  0  0
    6.4364    3.4439   21.2559 H   0  0  0  0  0  0  0  0  0  0  0  0
    4.8831    2.7755   19.7571 S   0  0  0  0  0  0  0  0  0  0  0  0
    4.5829    3.7729   18.7558 O   0  0  0  0  0  0  0  0  0  0  0  0
    3.8954    1.8094   20.1858 O   0  0  0  0  0  0  0  0  0  0  0  0
    8.5021    0.9236   18.7360 C   0  0  0  0  0  0  0  0  0  0  0  0
    9.8496    0.5404   18.6703 C   0  0  0  0  0  0  0  0  0  0  0  0
   10.1872   -0.4429   17.7457 C   0  0  0  0  0  0  0  0  0  0  0  0
    9.1935   -0.9782   16.9459 C   0  0  0  0  0  0  0  0  0  0  0  0
    7.8919   -0.6381   16.9902 N   0  0  0  0  0  0  0  0  0  0  0  0
    7.5618    0.3135   17.9054 C   0  0  0  0  0  0  0  0  0  0  0  0
    6.2478    0.7991   18.1436 C   0  0  0  0  0  0  0  0  0  0  0  0
    6.2101    1.7880   19.1044 C   0  0  0  0  0  0  0  0  0  0  0  0
    7.7665    2.1102   19.7370 S   0  0  0  0  0  0  0  0  0  0  0  0
    6.2261    8.2800   22.3673 C   0  0  0  0  0  0  0  0  0  0  0  0
    7.4718    8.2578   23.2032 C   0  0  0  0  0  0  0  0  0  0  0  0
    8.5916    8.9789   22.9451 C   0  0  0  0  0  0  0  0  0  0  0  0
    9.4447    8.7435   24.0630 C   0  0  0  0  0  0  0  0  0  0  0  0
   10.6363    9.1562   24.4762 C   0  0  0  0  0  0  0  0  0  0  0  0
   11.2293    8.6998   25.7793 C   0  0  0  0  0  0  0  0  0  0  0  0
   10.4086    7.7872   26.5940 N   0  0  0  0  0  0  0  0  0  0  0  0
    9.2527    7.3981   26.1859 C   0  0  0  0  0  0  0  0  0  0  0  0
    8.6781    7.8373   24.9021 C   0  0  0  0  0  0  0  0  0  0  0  0
    7.5093    7.5330   24.4035 N   0  0  0  0  0  0  0  0  0  0  0  0
  1  7  1  1  0  0  0
  1  2  1  0  0  0  0
  1  6  1  0  0  0  0
  2  3  2  0  0  0  0
  2  4  1  0  0  0  0
  4  5  1  0  0  0  0
  4 21  1  0  0  0  0
  5  6  1  0  0  0  0
  7  8  1  0  0  0  0
  9 10  2  0  0  0  0
  9 11  2  0  0  0  0
  9  7  1  0  0  0  0
 12 13  1  0  0  0  0
 12 17  2  0  0  0  0
 12 20  1  0  0  0  0
 13 14  2  0  0  0  0
 14 15  1  0  0  0  0
 15 16  2  0  0  0  0
 16 17  1  0  0  0  0
 17 18  1  0  0  0  0
 18 19  2  0  0  0  0
 19 20  1  0  0  0  0
 19  9  1  0  0  0  0
 21 22  1  0  0  0  0
 22 23  2  0  0  0  0
 22 30  1  0  0  0  0
 23 24  1  0  0  0  0
 24 25  2  0  0  0  0
 24 29  1  0  0  0  0
 25 26  1  0  0  0  0
 26 27  1  0  0  0  0
 27 28  2  0  0  0  0
 28 29  1  0  0  0  0
 29 30  2  0  0  0  0
M  END
>  <minimizedAffinity>
-9.69808

$$$$
