# created with PyMOL 2.5.0
@<TRIPOS>MOLECULE
data/FXA/cocry_dataset/1fax_DX9_LIG.pdb
64 67 1                 
SMALL
USER_CHARGES
@<TRIPOS>ATOM
1	 H17	6.563	11.954	13.350	 H	1	UNK0	0.000	
2	 H02	4.487	4.934	16.587	 H	1	UNK0	0.000	
3	 H01	4.630	2.755	17.478	 H	1	UNK0	0.000	
4	 H07	6.001	7.871	12.717	 H	1	UNK0	0.000	
5	 H06	7.426	7.001	14.555	 H	1	UNK0	0.000	
6	 H05	5.632	1.581	14.155	 H	1	UNK0	0.000	
7	 H04	7.127	3.061	12.840	 H	1	UNK0	0.000	
8	 H03	5.971	6.407	15.264	 H	1	UNK0	0.000	
9	 H15	8.566	10.351	15.179	 H	1	UNK0	0.000	
10	 H10	9.654	8.793	11.829	 H	1	UNK0	0.000	
11	 H13	6.744	9.232	14.459	 H	1	UNK0	0.000	
12	 H12	9.751	7.331	14.321	 H	1	UNK0	0.000	
13	 H23	6.039	2.183	18.645	 H	1	UNK0	0.000	
14	 H11	9.788	6.665	12.706	 H	1	UNK0	0.000	
15	 H09	9.660	9.451	13.474	 H	1	UNK0	0.000	
16	 H08	7.184	7.419	11.512	 H	1	UNK0	0.000	
17	 H16	5.265	10.880	13.924	 H	1	UNK0	0.000	
18	 H19	1.955	2.243	14.886	 H	1	UNK0	0.000	
19	 H22	6.840	-0.871	15.728	 H	1	UNK0	0.000	
20	 H21	4.188	0.180	17.226	 H	1	UNK0	0.000	
21	 H20	4.883	0.415	15.571	 H	1	UNK0	0.000	
22	 H31	11.418	-4.660	15.789	 H	1	UNK0	0.000	
23	 H26	11.975	-1.062	18.624	 H	1	UNK0	0.000	
24	 H25	10.500	0.690	19.565	 H	1	UNK0	0.000	
25	 H24	8.320	1.894	19.568	 H	1	UNK0	0.000	
26	 H27	8.924	-2.090	15.773	 H	1	UNK0	0.000	
27	 H30	9.836	-4.021	16.175	 H	1	UNK0	0.000	
28	 H29	13.137	-1.835	16.922	 H	1	UNK0	0.000	
29	 H28	13.280	-3.427	16.210	 H	1	UNK0	0.000	
30	 H14	7.961	11.681	14.412	 H	1	UNK0	0.000	
31	 H18	5.864	10.737	12.254	 H	1	UNK0	0.000	
32	   C	4.338	2.233	16.567	C.3	1	UNK0	0.000	
33	   C	5.039	3.126	15.543	C.2	1	UNK0	0.000	
34	   C	5.097	4.506	15.791	C.2	1	UNK0	0.000	
35	   C	5.924	5.343	15.034	C.2	1	UNK0	0.000	
36	   C	6.687	4.829	13.989	C.2	1	UNK0	0.000	
37	   C	6.567	3.472	13.680	C.2	1	UNK0	0.000	
38	   C	5.736	2.629	14.434	C.2	1	UNK0	0.000	
39	   O	7.584	5.528	13.225	O.3	1	UNK0	0.000	
40	   C	7.785	6.905	13.530	C.3	1	UNK0	0.000	
41	   C	7.072	7.809	12.524	C.3	1	UNK0	0.000	
42	   N	7.738	9.128	12.652	N.3	1	UNK0	0.000	
43	   C	9.161	8.755	12.800	C.3	1	UNK0	0.000	
44	   C	9.235	7.337	13.361	C.3	1	UNK0	0.000	
45	   C	7.195	9.928	13.751	C.3	1	UNK0	0.000	
46	   N	8.276	10.729	14.289	N.3	1	UNK0	0.000	
47	   C	6.146	10.949	13.286	C.3	1	UNK0	0.000	
48	   C	2.818	2.215	16.573	C.2	1	UNK0	0.000	
49	   O	2.184	1.652	17.462	O.co2	1	UNK0	0.000	
50	   O	2.188	2.865	15.579	O.3	1	UNK0	0.000	
51	   C	4.858	0.770	16.601	C.3	1	UNK0	0.000	
52	   C	7.152	-0.290	16.596	C.2	1	UNK0	0.000	
53	   C	6.266	0.642	17.151	C.2	1	UNK0	0.000	
54	   C	6.703	1.432	18.219	C.2	1	UNK0	0.000	
55	   C	7.989	1.265	18.742	C.2	1	UNK0	0.000	
56	   C	8.860	0.295	18.217	C.2	1	UNK0	0.000	
57	   C	10.145	0.078	18.736	C.2	1	UNK0	0.000	
58	   C	10.979	-0.915	18.204	C.2	1	UNK0	0.000	
59	   C	10.552	-1.723	17.139	C.2	1	UNK0	0.000	
60	   C	9.272	-1.486	16.611	C.2	1	UNK0	0.000	
61	   C	8.430	-0.493	17.133	C.2	1	UNK0	0.000	
62	   C	11.395	-2.806	16.594	C.2	1	UNK0	0.000	
63	   N	12.706	-2.679	16.574	N.pl3	1	UNK0	0.000	
64	   N	10.840	-3.915	16.152	N.pl3	1	UNK0	0.000	
@<TRIPOS>BOND
1 3 32 1
2 32 33 1
3 32 48 1
4 32 51 1
5 33 34 1
6 33 38 2
7 2 34 1
8 34 35 2
9 8 35 1
10 35 36 1
11 36 37 2
12 36 39 1
13 7 37 1
14 37 38 1
15 6 38 1
16 5 40 1
17 39 40 1
18 40 41 1
19 40 44 1
20 4 41 1
21 16 41 1
22 41 42 1
23 42 43 1
24 42 45 1
25 10 43 1
26 15 43 1
27 43 44 1
28 12 44 1
29 14 44 1
30 11 45 1
31 45 46 1
32 45 47 1
33 9 46 1
34 30 46 1
35 1 47 1
36 17 47 1
37 31 47 1
38 48 49 2
39 48 50 1
40 18 50 1
41 20 51 1
42 21 51 1
43 19 52 1
44 52 53 1
45 52 61 2
46 51 53 1
47 53 54 2
48 13 54 1
49 54 55 1
50 25 55 1
51 55 56 2
52 56 57 1
53 56 61 1
54 24 57 1
55 57 58 2
56 23 58 1
57 58 59 1
58 59 60 2
59 59 62 1
60 26 60 1
61 60 61 1
62 62 63 2
63 62 64 1
64 28 63 1
65 29 63 1
66 22 64 1
67 27 64 1
@<TRIPOS>SUBSTRUCTURE
1	UNK0	1	GROUP	1 ****	UNK
