# created with PyMOL 2.5.0
@<TRIPOS>MOLECULE
data/FXA/cocry_dataset/1fax_DX9_LIG.pdb
64 67 1                 
SMALL
USER_CHARGES
@<TRIPOS>ATOM
1	 H17	9.488	7.474	25.268	 H	1	UNK0	0.000	
2	 H02	4.720	3.714	18.657	 H	1	UNK0	0.000	
3	 H01	7.098	1.359	20.232	 H	1	UNK0	0.000	
4	 H07	7.065	8.485	23.647	 H	1	UNK0	0.000	
5	 H06	8.085	6.817	22.116	 H	1	UNK0	0.000	
6	 H05	8.319	3.153	20.938	 H	1	UNK0	0.000	
7	 H04	8.192	5.512	21.695	 H	1	UNK0	0.000	
8	 H03	4.605	6.070	19.408	 H	1	UNK0	0.000	
9	 H15	10.704	9.760	25.174	 H	1	UNK0	0.000	
10	 H10	8.841	10.481	20.847	 H	1	UNK0	0.000	
11	 H13	10.147	8.148	23.134	 H	1	UNK0	0.000	
12	 H12	9.215	7.680	20.233	 H	1	UNK0	0.000	
13	 H23	8.991	1.686	19.430	 H	1	UNK0	0.000	
14	 H11	7.872	8.693	19.761	 H	1	UNK0	0.000	
15	 H09	10.215	9.448	21.279	 H	1	UNK0	0.000	
16	 H08	6.604	9.512	22.310	 H	1	UNK0	0.000	
17	 H16	7.915	8.003	24.626	 H	1	UNK0	0.000	
18	 H19	3.929	-0.296	19.280	 H	1	UNK0	0.000	
19	 H22	7.155	-0.714	16.372	 H	1	UNK0	0.000	
20	 H21	5.795	0.672	17.758	 H	1	UNK0	0.000	
21	 H20	6.700	2.221	17.521	 H	1	UNK0	0.000	
22	 H31	9.206	-5.640	13.954	 H	1	UNK0	0.000	
23	 H26	12.381	-3.437	16.595	 H	1	UNK0	0.000	
24	 H25	12.322	-1.521	18.162	 H	1	UNK0	0.000	
25	 H24	11.080	0.372	19.199	 H	1	UNK0	0.000	
26	 H27	8.332	-2.595	15.421	 H	1	UNK0	0.000	
27	 H30	8.335	-4.409	14.841	 H	1	UNK0	0.000	
28	 H29	12.360	-4.540	14.985	 H	1	UNK0	0.000	
29	 H28	11.476	-5.714	14.035	 H	1	UNK0	0.000	
30	 H14	9.977	10.859	24.181	 H	1	UNK0	0.000	
31	 H18	8.849	9.081	25.691	 H	1	UNK0	0.000	
32	   C	6.314	1.728	19.570	C.3	1	UNK0	0.000	
33	   C	6.462	3.227	19.835	C.2	1	UNK0	0.000	
34	   C	5.464	4.091	19.360	C.2	1	UNK0	0.000	
35	   C	5.407	5.427	19.771	C.2	1	UNK0	0.000	
36	   C	6.365	5.942	20.640	C.2	1	UNK0	0.000	
37	   C	7.412	5.112	21.047	C.2	1	UNK0	0.000	
38	   C	7.476	3.773	20.635	C.2	1	UNK0	0.000	
39	   O	6.377	7.206	21.169	O.3	1	UNK0	0.000	
40	   C	7.612	7.699	21.683	C.3	1	UNK0	0.000	
41	   C	7.387	8.844	22.670	C.3	1	UNK0	0.000	
42	   N	8.687	9.554	22.738	N.3	1	UNK0	0.000	
43	   C	9.131	9.547	21.329	C.3	1	UNK0	0.000	
44	   C	8.465	8.371	20.617	C.3	1	UNK0	0.000	
45	   C	9.619	8.931	23.679	C.3	1	UNK0	0.000	
46	   N	10.467	9.976	24.216	N.3	1	UNK0	0.000	
47	   C	8.917	8.328	24.906	C.3	1	UNK0	0.000	
48	   C	5.035	1.048	20.031	C.2	1	UNK0	0.000	
49	   O	4.763	0.926	21.222	O.co2	1	UNK0	0.000	
50	   O	4.193	0.605	19.080	O.3	1	UNK0	0.000	
51	   C	6.610	1.306	18.106	C.3	1	UNK0	0.000	
52	   C	8.005	-0.500	17.020	C.2	1	UNK0	0.000	
53	   C	7.912	0.546	17.948	C.2	1	UNK0	0.000	
54	   C	9.034	0.857	18.722	C.2	1	UNK0	0.000	
55	   C	10.211	0.112	18.595	C.2	1	UNK0	0.000	
56	   C	10.286	-0.968	17.699	C.2	1	UNK0	0.000	
57	   C	11.439	-1.756	17.567	C.2	1	UNK0	0.000	
58	   C	11.472	-2.842	16.681	C.2	1	UNK0	0.000	
59	   C	10.352	-3.174	15.904	C.2	1	UNK0	0.000	
60	   C	9.209	-2.367	16.026	C.2	1	UNK0	0.000	
61	   C	9.165	-1.277	16.907	C.2	1	UNK0	0.000	
62	   C	10.349	-4.341	14.999	C.2	1	UNK0	0.000	
63	   N	11.483	-4.909	14.645	N.pl3	1	UNK0	0.000	
64	   N	9.208	-4.835	14.564	N.pl3	1	UNK0	0.000	
@<TRIPOS>BOND
1 3 32 1
2 32 33 1
3 32 48 1
4 32 51 1
5 33 34 1
6 33 38 2
7 2 34 1
8 34 35 2
9 8 35 1
10 35 36 1
11 36 37 2
12 36 39 1
13 7 37 1
14 37 38 1
15 6 38 1
16 5 40 1
17 39 40 1
18 40 41 1
19 40 44 1
20 4 41 1
21 16 41 1
22 41 42 1
23 42 43 1
24 42 45 1
25 10 43 1
26 15 43 1
27 43 44 1
28 12 44 1
29 14 44 1
30 11 45 1
31 45 46 1
32 45 47 1
33 9 46 1
34 30 46 1
35 1 47 1
36 17 47 1
37 31 47 1
38 48 49 2
39 48 50 1
40 18 50 1
41 20 51 1
42 21 51 1
43 19 52 1
44 52 53 1
45 52 61 2
46 51 53 1
47 53 54 2
48 13 54 1
49 54 55 1
50 25 55 1
51 55 56 2
52 56 57 1
53 56 61 1
54 24 57 1
55 57 58 2
56 23 58 1
57 58 59 1
58 59 60 2
59 59 62 1
60 26 60 1
61 60 61 1
62 62 63 2
63 62 64 1
64 28 63 1
65 29 63 1
66 22 64 1
67 27 64 1
@<TRIPOS>SUBSTRUCTURE
1	UNK0	1	GROUP	1 ****	UNK
