data/FXA/cocry_dataset/1fax_DX9_LIG.pdb
 OpenBabel03092321123D

 40 43  0  0  0  0  0  0  0  0999 V2000
    5.8273    1.2969   19.1160 C   0  0  1  0  0  0  0  0  0  0  0  0
    6.0780    2.6462   19.7899 C   0  0  0  0  0  0  0  0  0  0  0  0
    7.1804    2.7684   20.6495 C   0  0  0  0  0  0  0  0  0  0  0  0
    7.6096    4.0206   21.1026 C   0  0  0  0  0  0  0  0  0  0  0  0
    6.9285    5.1782   20.7370 C   0  0  0  0  0  0  0  0  0  0  0  0
    5.7776    5.0565   19.9542 C   0  0  0  0  0  0  0  0  0  0  0  0
    5.3414    3.8027   19.5003 C   0  0  0  0  0  0  0  0  0  0  0  0
    7.2890    6.4611   21.0548 O   0  0  0  0  0  0  0  0  0  0  0  0
    6.7807    7.0134   22.2667 C   0  0  2  0  0  0  0  0  0  0  0  0
    5.8393    8.1861   21.9922 C   0  0  0  0  0  0  0  0  0  0  0  0
    5.7838    8.9411   23.2677 N   0  0  0  0  0  0  0  0  0  0  0  0
    7.1877    8.8972   23.7270 C   0  0  0  0  0  0  0  0  0  0  0  0
    7.8620    7.6745   23.1087 C   0  0  0  0  0  0  0  0  0  0  0  0
    4.8109    8.3843   24.2089 C   0  0  1  0  0  0  0  0  0  0  0  0
    4.6661    9.3266   25.3005 N   0  0  0  0  0  0  0  0  0  0  0  0
    3.4020    8.2613   23.6095 C   0  0  0  0  0  0  0  0  0  0  0  0
    4.5747   10.2499   24.8797 H   0  0  0  0  0  0  0  0  0  0  0  0
    5.5061    9.3505   25.8640 H   0  0  0  0  0  0  0  0  0  0  0  0
    4.4025    0.7691   19.0892 C   0  0  0  0  0  0  0  0  0  0  0  0
    3.8064    0.5760   18.0326 O   0  0  0  0  0  0  0  0  0  0  0  0
    3.8223    0.4941   20.2707 O   0  0  0  0  0  0  0  0  0  0  0  0
    4.3736    0.6595   21.0641 H   0  0  0  0  0  0  0  0  0  0  0  0
    6.4384    1.1696   17.6945 C   0  0  0  0  0  0  0  0  0  0  0  0
    7.9853   -0.6164   16.7980 C   0  0  0  0  0  0  0  0  0  0  0  0
    7.7766    0.4576   17.6732 C   0  0  0  0  0  0  0  0  0  0  0  0
    8.8178    0.8421   18.5243 C   0  0  0  0  0  0  0  0  0  0  0  0
   10.0281    0.1410   18.5233 C   0  0  0  0  0  0  0  0  0  0  0  0
   10.2183   -0.9666   17.6798 C   0  0  0  0  0  0  0  0  0  0  0  0
   11.4069   -1.7117   17.6736 C   0  0  0  0  0  0  0  0  0  0  0  0
   11.5541   -2.8267   16.8366 C   0  0  0  0  0  0  0  0  0  0  0  0
   10.5157   -3.2317   15.9839 C   0  0  0  0  0  0  0  0  0  0  0  0
    9.3369   -2.4682   15.9808 C   0  0  0  0  0  0  0  0  0  0  0  0
    9.1789   -1.3490   16.8107 C   0  0  0  0  0  0  0  0  0  0  0  0
   10.6315   -4.4301   15.1285 C   0  0  0  0  0  0  0  0  0  0  0  0
    9.5652   -5.1488   14.8462 N   0  0  0  0  0  0  0  0  0  0  0  0
   11.7995   -4.7681   14.6220 N   0  0  0  0  0  0  0  0  0  0  0  0
    8.6535   -4.8790   15.1983 H   0  0  0  0  0  0  0  0  0  0  0  0
    9.6049   -5.9745   14.2645 H   0  0  0  0  0  0  0  0  0  0  0  0
   12.6366   -4.2481   14.8618 H   0  0  0  0  0  0  0  0  0  0  0  0
   11.9161   -5.5560   14.0001 H   0  0  0  0  0  0  0  0  0  0  0  0
  1  2  1  0  0  0  0
  1 19  1  0  0  0  0
  1 23  1  6  0  0  0
  2  3  1  0  0  0  0
  2  7  2  0  0  0  0
  3  4  2  0  0  0  0
  4  5  1  0  0  0  0
  5  6  2  0  0  0  0
  5  8  1  0  0  0  0
  6  7  1  0  0  0  0
  9  8  1  6  0  0  0
  9 10  1  0  0  0  0
  9 13  1  0  0  0  0
 10 11  1  0  0  0  0
 11 12  1  0  0  0  0
 11 14  1  0  0  0  0
 12 13  1  0  0  0  0
 14 15  1  0  0  0  0
 14 16  1  6  0  0  0
 15 17  1  0  0  0  0
 15 18  1  0  0  0  0
 19 20  2  0  0  0  0
 19 21  1  0  0  0  0
 21 22  1  0  0  0  0
 24 25  1  0  0  0  0
 24 33  2  0  0  0  0
 25 26  2  0  0  0  0
 25 23  1  0  0  0  0
 26 27  1  0  0  0  0
 27 28  2  0  0  0  0
 28 29  1  0  0  0  0
 28 33  1  0  0  0  0
 29 30  2  0  0  0  0
 30 31  1  0  0  0  0
 31 32  2  0  0  0  0
 31 34  1  0  0  0  0
 32 33  1  0  0  0  0
 34 35  2  0  0  0  0
 34 36  1  0  0  0  0
 35 37  1  0  0  0  0
 35 38  1  0  0  0  0
 36 39  1  0  0  0  0
 36 40  1  0  0  0  0
M  END
>  <minimizedAffinity>
-10.93617

$$$$
