data/FXA/cocry_dataset/1fax_DX9_LIG.pdb
 OpenBabel03092321123D

 40 43  0  0  0  0  0  0  0  0999 V2000
    4.3378    2.2326   16.5671 C   0  0  1  0  0  0  0  0  0  0  0  0
    5.0390    3.1260   15.5435 C   0  0  0  0  0  0  0  0  0  0  0  0
    5.0970    4.5061   15.7908 C   0  0  0  0  0  0  0  0  0  0  0  0
    5.9240    5.3430   15.0338 C   0  0  0  0  0  0  0  0  0  0  0  0
    6.6870    4.8289   13.9891 C   0  0  0  0  0  0  0  0  0  0  0  0
    6.5668    3.4717   13.6798 C   0  0  0  0  0  0  0  0  0  0  0  0
    5.7361    2.6292   14.4339 C   0  0  0  0  0  0  0  0  0  0  0  0
    7.5837    5.5277   13.2248 O   0  0  0  0  0  0  0  0  0  0  0  0
    7.7854    6.9055   13.5301 C   0  0  2  0  0  0  0  0  0  0  0  0
    7.0723    7.8088   12.5241 C   0  0  0  0  0  0  0  0  0  0  0  0
    7.7382    9.1279   12.6524 N   0  0  0  0  0  0  0  0  0  0  0  0
    9.1606    8.7555   12.7998 C   0  0  0  0  0  0  0  0  0  0  0  0
    9.2346    7.3373   13.3614 C   0  0  0  0  0  0  0  0  0  0  0  0
    7.1946    9.9276   13.7513 C   0  0  1  0  0  0  0  0  0  0  0  0
    8.2761   10.7291   14.2886 N   0  0  0  0  0  0  0  0  0  0  0  0
    6.1457   10.9487   13.2858 C   0  0  0  0  0  0  0  0  0  0  0  0
    8.7663   11.1311   13.4912 H   0  0  0  0  0  0  0  0  0  0  0  0
    8.9460   10.1449   14.7719 H   0  0  0  0  0  0  0  0  0  0  0  0
    2.8182    2.2153   16.5732 C   0  0  0  0  0  0  0  0  0  0  0  0
    2.1836    1.6522   17.4617 O   0  0  0  0  0  0  0  0  0  0  0  0
    2.1880    2.8652   15.5789 O   0  0  0  0  0  0  0  0  0  0  0  0
    2.7688    3.3028   14.9216 H   0  0  0  0  0  0  0  0  0  0  0  0
    4.8583    0.7704   16.6015 C   0  0  0  0  0  0  0  0  0  0  0  0
    7.1521   -0.2904   16.5964 C   0  0  0  0  0  0  0  0  0  0  0  0
    6.2655    0.6422   17.1507 C   0  0  0  0  0  0  0  0  0  0  0  0
    6.7034    1.4324   18.2186 C   0  0  0  0  0  0  0  0  0  0  0  0
    7.9894    1.2645   18.7422 C   0  0  0  0  0  0  0  0  0  0  0  0
    8.8602    0.2948   18.2170 C   0  0  0  0  0  0  0  0  0  0  0  0
   10.1451    0.0778   18.7364 C   0  0  0  0  0  0  0  0  0  0  0  0
   10.9793   -0.9155   18.2042 C   0  0  0  0  0  0  0  0  0  0  0  0
   10.5516   -1.7234   17.1394 C   0  0  0  0  0  0  0  0  0  0  0  0
    9.2720   -1.4859   16.6115 C   0  0  0  0  0  0  0  0  0  0  0  0
    8.4298   -0.4934   17.1328 C   0  0  0  0  0  0  0  0  0  0  0  0
   11.3953   -2.8062   16.5943 C   0  0  0  0  0  0  0  0  0  0  0  0
   12.7056   -2.6794   16.5739 N   0  0  0  0  0  0  0  0  0  0  0  0
   10.8397   -3.9154   16.1518 N   0  0  0  0  0  0  0  0  0  0  0  0
   13.1488   -1.8468   16.9457 H   0  0  0  0  0  0  0  0  0  0  0  0
   13.3153   -3.3984   16.2093 H   0  0  0  0  0  0  0  0  0  0  0  0
    9.8305   -4.0125   16.1243 H   0  0  0  0  0  0  0  0  0  0  0  0
   11.3811   -4.6965   15.8085 H   0  0  0  0  0  0  0  0  0  0  0  0
  1  2  1  0  0  0  0
  1 19  1  0  0  0  0
  1 23  1  6  0  0  0
  2  3  1  0  0  0  0
  2  7  2  0  0  0  0
  3  4  2  0  0  0  0
  4  5  1  0  0  0  0
  5  6  2  0  0  0  0
  5  8  1  0  0  0  0
  6  7  1  0  0  0  0
  9  8  1  6  0  0  0
  9 10  1  0  0  0  0
  9 13  1  0  0  0  0
 10 11  1  0  0  0  0
 11 12  1  0  0  0  0
 11 14  1  0  0  0  0
 12 13  1  0  0  0  0
 14 15  1  0  0  0  0
 14 16  1  6  0  0  0
 15 17  1  0  0  0  0
 15 18  1  0  0  0  0
 19 20  2  0  0  0  0
 19 21  1  0  0  0  0
 21 22  1  0  0  0  0
 24 25  1  0  0  0  0
 24 33  2  0  0  0  0
 25 26  2  0  0  0  0
 25 23  1  0  0  0  0
 26 27  1  0  0  0  0
 27 28  2  0  0  0  0
 28 29  1  0  0  0  0
 28 33  1  0  0  0  0
 29 30  2  0  0  0  0
 30 31  1  0  0  0  0
 31 32  2  0  0  0  0
 31 34  1  0  0  0  0
 32 33  1  0  0  0  0
 34 35  2  0  0  0  0
 34 36  1  0  0  0  0
 35 37  1  0  0  0  0
 35 38  1  0  0  0  0
 36 39  1  0  0  0  0
 36 40  1  0  0  0  0
M  END
>  <minimizedAffinity>
-11.28608

$$$$
