data/FXA/cocry_dataset/1fax_DX9_LIG.pdb


 40 43  0  0  0  0  0  0  0  0999 V2000
    6.3138    1.7282   19.5704 C   0  0  0  0  0  0  0  0  0  0  0  0
    6.4623    3.2267   19.8352 C   0  0  0  0  0  0  0  0  0  0  0  0
    5.4640    4.0907   19.3596 C   0  0  0  0  0  0  0  0  0  0  0  0
    5.4069    5.4267   19.7710 C   0  0  0  0  0  0  0  0  0  0  0  0
    6.3646    5.9424   20.6397 C   0  0  0  0  0  0  0  0  0  0  0  0
    7.4121    5.1124   21.0471 C   0  0  0  0  0  0  0  0  0  0  0  0
    7.4755    3.7730   20.6345 C   0  0  0  0  0  0  0  0  0  0  0  0
    6.3774    7.2060   21.1686 O   0  0  0  0  0  0  0  0  0  0  0  0
    7.6123    7.6987   21.6829 C   0  0  0  0  0  0  0  0  0  0  0  0
    7.3869    8.8442   22.6697 C   0  0  0  0  0  0  0  0  0  0  0  0
    8.6874    9.5540   22.7382 N   0  0  0  0  0  0  0  0  0  0  0  0
    9.1306    9.5470   21.3285 C   0  0  0  0  0  0  0  0  0  0  0  0
    8.4647    8.3712   20.6169 C   0  0  0  0  0  0  0  0  0  0  0  0
    9.6194    8.9307   23.6791 C   0  0  0  0  0  0  0  0  0  0  0  0
   10.4671    9.9764   24.2162 N   0  0  0  0  0  0  0  0  0  0  0  0
    8.9174    8.3285   24.9055 C   0  0  0  0  0  0  0  0  0  0  0  0
    9.8541   10.7514   24.4640 H   0  0  0  0  0  0  0  0  0  0  0  0
   11.0964   10.3250   23.5048 H   0  0  0  0  0  0  0  0  0  0  0  0
    5.0351    1.0480   20.0306 C   0  0  0  0  0  0  0  0  0  0  0  0
    4.7630    0.9257   21.2223 O   0  0  0  0  0  0  0  0  0  0  0  0
    4.1934    0.6050   19.0801 O   0  0  0  0  0  0  0  0  0  0  0  0
    4.4779    0.7587   18.1547 H   0  0  0  0  0  0  0  0  0  0  0  0
    6.6100    1.3060   18.1061 C   0  0  0  0  0  0  0  0  0  0  0  0
    8.0047   -0.4999   17.0198 C   0  0  0  0  0  0  0  0  0  0  0  0
    7.9121    0.5459   17.9476 C   0  0  0  0  0  0  0  0  0  0  0  0
    9.0341    0.8573   18.7225 C   0  0  0  0  0  0  0  0  0  0  0  0
   10.2108    0.1120   18.5952 C   0  0  0  0  0  0  0  0  0  0  0  0
   10.2864   -0.9678   17.6993 C   0  0  0  0  0  0  0  0  0  0  0  0
   11.4393   -1.7560   17.5672 C   0  0  0  0  0  0  0  0  0  0  0  0
   11.4722   -2.8419   16.6811 C   0  0  0  0  0  0  0  0  0  0  0  0
   10.3520   -3.1738   15.9037 C   0  0  0  0  0  0  0  0  0  0  0  0
    9.2089   -2.3672   16.0264 C   0  0  0  0  0  0  0  0  0  0  0  0
    9.1647   -1.2766   16.9066 C   0  0  0  0  0  0  0  0  0  0  0  0
   10.3488   -4.3411   14.9988 C   0  0  0  0  0  0  0  0  0  0  0  0
   11.4828   -4.9091   14.6453 N   0  0  0  0  0  0  0  0  0  0  0  0
    9.2078   -4.8352   14.5643 N   0  0  0  0  0  0  0  0  0  0  0  0
   12.3662   -4.5626   15.0021 H   0  0  0  0  0  0  0  0  0  0  0  0
   11.5205   -5.7091   14.0286 H   0  0  0  0  0  0  0  0  0  0  0  0
    8.3286   -4.3856   14.7955 H   0  0  0  0  0  0  0  0  0  0  0  0
    9.1580   -5.6562   13.9771 H   0  0  0  0  0  0  0  0  0  0  0  0
 24 25  1  0  0  0
 24 33  2  0  0  0
 25 26  2  0  0  0
 25 23  1  0  0  0
 26 27  1  0  0  0
 27 28  2  0  0  0
 28 29  1  0  0  0
 28 33  1  0  0  0
 29 30  2  0  0  0
 30 31  1  0  0  0
 31 32  2  0  0  0
 31 34  1  0  0  0
 32 33  1  0  0  0
 34 35  2  0  0  0
 34 36  1  0  0  0
 35 37  1  0  0  0
 35 38  1  0  0  0
 36 39  1  0  0  0
 36 40  1  0  0  0
  1  2  1  0  0  0
  1 19  1  0  0  0
  1 23  1  0  0  0
 19 20  2  0  0  0
 19 21  1  0  0  0
 21 22  1  0  0  0
  2  3  1  0  0  0
  2  7  2  0  0  0
  3  4  2  0  0  0
  4  5  1  0  0  0
  5  6  2  0  0  0
  5  8  1  0  0  0
  6  7  1  0  0  0
  8  9  1  0  0  0
  9 10  1  0  0  0
  9 13  1  0  0  0
 10 11  1  0  0  0
 11 12  1  0  0  0
 11 14  1  0  0  0
 12 13  1  0  0  0
 14 15  1  0  0  0
 14 16  1  0  0  0
 15 17  1  0  0  0
 15 18  1  0  0  0
M  END
> <minimizedAffinity>
-11.85890

$$$$
data/FXA/cocry_dataset/1fax_DX9_LIG.pdb


 40 43  0  0  0  0  0  0  0  0999 V2000
    4.3378    2.2326   16.5671 C   0  0  0  0  0  0  0  0  0  0  0  0
    5.0390    3.1260   15.5435 C   0  0  0  0  0  0  0  0  0  0  0  0
    5.0970    4.5061   15.7908 C   0  0  0  0  0  0  0  0  0  0  0  0
    5.9240    5.3430   15.0338 C   0  0  0  0  0  0  0  0  0  0  0  0
    6.6870    4.8289   13.9891 C   0  0  0  0  0  0  0  0  0  0  0  0
    6.5668    3.4717   13.6798 C   0  0  0  0  0  0  0  0  0  0  0  0
    5.7361    2.6292   14.4339 C   0  0  0  0  0  0  0  0  0  0  0  0
    7.5837    5.5277   13.2248 O   0  0  0  0  0  0  0  0  0  0  0  0
    7.7854    6.9055   13.5301 C   0  0  0  0  0  0  0  0  0  0  0  0
    7.0723    7.8088   12.5241 C   0  0  0  0  0  0  0  0  0  0  0  0
    7.7382    9.1279   12.6524 N   0  0  0  0  0  0  0  0  0  0  0  0
    9.1606    8.7555   12.7998 C   0  0  0  0  0  0  0  0  0  0  0  0
    9.2346    7.3373   13.3614 C   0  0  0  0  0  0  0  0  0  0  0  0
    7.1946    9.9276   13.7513 C   0  0  0  0  0  0  0  0  0  0  0  0
    8.2761   10.7291   14.2886 N   0  0  0  0  0  0  0  0  0  0  0  0
    6.1457   10.9487   13.2858 C   0  0  0  0  0  0  0  0  0  0  0  0
    8.7663   11.1311   13.4912 H   0  0  0  0  0  0  0  0  0  0  0  0
    8.9460   10.1449   14.7719 H   0  0  0  0  0  0  0  0  0  0  0  0
    2.8182    2.2153   16.5732 C   0  0  0  0  0  0  0  0  0  0  0  0
    2.1836    1.6522   17.4617 O   0  0  0  0  0  0  0  0  0  0  0  0
    2.1880    2.8652   15.5789 O   0  0  0  0  0  0  0  0  0  0  0  0
    2.7688    3.3028   14.9216 H   0  0  0  0  0  0  0  0  0  0  0  0
    4.8583    0.7704   16.6015 C   0  0  0  0  0  0  0  0  0  0  0  0
    7.1521   -0.2904   16.5964 C   0  0  0  0  0  0  0  0  0  0  0  0
    6.2655    0.6422   17.1507 C   0  0  0  0  0  0  0  0  0  0  0  0
    6.7034    1.4324   18.2186 C   0  0  0  0  0  0  0  0  0  0  0  0
    7.9894    1.2645   18.7422 C   0  0  0  0  0  0  0  0  0  0  0  0
    8.8602    0.2948   18.2170 C   0  0  0  0  0  0  0  0  0  0  0  0
   10.1451    0.0778   18.7364 C   0  0  0  0  0  0  0  0  0  0  0  0
   10.9793   -0.9155   18.2042 C   0  0  0  0  0  0  0  0  0  0  0  0
   10.5516   -1.7234   17.1394 C   0  0  0  0  0  0  0  0  0  0  0  0
    9.2720   -1.4859   16.6115 C   0  0  0  0  0  0  0  0  0  0  0  0
    8.4298   -0.4934   17.1328 C   0  0  0  0  0  0  0  0  0  0  0  0
   11.3953   -2.8062   16.5943 C   0  0  0  0  0  0  0  0  0  0  0  0
   12.7056   -2.6794   16.5739 N   0  0  0  0  0  0  0  0  0  0  0  0
   10.8397   -3.9154   16.1518 N   0  0  0  0  0  0  0  0  0  0  0  0
   13.1488   -1.8468   16.9457 H   0  0  0  0  0  0  0  0  0  0  0  0
   13.3153   -3.3984   16.2093 H   0  0  0  0  0  0  0  0  0  0  0  0
    9.8305   -4.0125   16.1243 H   0  0  0  0  0  0  0  0  0  0  0  0
   11.3811   -4.6965   15.8085 H   0  0  0  0  0  0  0  0  0  0  0  0
 24 25  1  0  0  0
 24 33  2  0  0  0
 25 26  2  0  0  0
 25 23  1  0  0  0
 26 27  1  0  0  0
 27 28  2  0  0  0
 28 29  1  0  0  0
 28 33  1  0  0  0
 29 30  2  0  0  0
 30 31  1  0  0  0
 31 32  2  0  0  0
 31 34  1  0  0  0
 32 33  1  0  0  0
 34 35  2  0  0  0
 34 36  1  0  0  0
 35 37  1  0  0  0
 35 38  1  0  0  0
 36 39  1  0  0  0
 36 40  1  0  0  0
  1  2  1  0  0  0
  1 19  1  0  0  0
  1 23  1  0  0  0
 19 20  2  0  0  0
 19 21  1  0  0  0
 21 22  1  0  0  0
  2  3  1  0  0  0
  2  7  2  0  0  0
  3  4  2  0  0  0
  4  5  1  0  0  0
  5  6  2  0  0  0
  5  8  1  0  0  0
  6  7  1  0  0  0
  8  9  1  0  0  0
  9 10  1  0  0  0
  9 13  1  0  0  0
 10 11  1  0  0  0
 11 12  1  0  0  0
 11 14  1  0  0  0
 12 13  1  0  0  0
 14 15  1  0  0  0
 14 16  1  0  0  0
 15 17  1  0  0  0
 15 18  1  0  0  0
M  END
> <minimizedAffinity>
-11.28608

$$$$
data/FXA/cocry_dataset/1fax_DX9_LIG.pdb


 40 43  0  0  0  0  0  0  0  0999 V2000
    5.8273    1.2969   19.1160 C   0  0  0  0  0  0  0  0  0  0  0  0
    6.0780    2.6462   19.7899 C   0  0  0  0  0  0  0  0  0  0  0  0
    7.1804    2.7684   20.6495 C   0  0  0  0  0  0  0  0  0  0  0  0
    7.6096    4.0206   21.1026 C   0  0  0  0  0  0  0  0  0  0  0  0
    6.9285    5.1782   20.7370 C   0  0  0  0  0  0  0  0  0  0  0  0
    5.7776    5.0565   19.9542 C   0  0  0  0  0  0  0  0  0  0  0  0
    5.3414    3.8027   19.5003 C   0  0  0  0  0  0  0  0  0  0  0  0
    7.2890    6.4611   21.0548 O   0  0  0  0  0  0  0  0  0  0  0  0
    6.7807    7.0134   22.2667 C   0  0  0  0  0  0  0  0  0  0  0  0
    5.8393    8.1861   21.9922 C   0  0  0  0  0  0  0  0  0  0  0  0
    5.7838    8.9411   23.2677 N   0  0  0  0  0  0  0  0  0  0  0  0
    7.1877    8.8972   23.7270 C   0  0  0  0  0  0  0  0  0  0  0  0
    7.8620    7.6745   23.1087 C   0  0  0  0  0  0  0  0  0  0  0  0
    4.8109    8.3843   24.2089 C   0  0  0  0  0  0  0  0  0  0  0  0
    4.6661    9.3266   25.3005 N   0  0  0  0  0  0  0  0  0  0  0  0
    3.4020    8.2613   23.6095 C   0  0  0  0  0  0  0  0  0  0  0  0
    4.5747   10.2499   24.8797 H   0  0  0  0  0  0  0  0  0  0  0  0
    5.5061    9.3505   25.8640 H   0  0  0  0  0  0  0  0  0  0  0  0
    4.4025    0.7691   19.0892 C   0  0  0  0  0  0  0  0  0  0  0  0
    3.8064    0.5760   18.0326 O   0  0  0  0  0  0  0  0  0  0  0  0
    3.8223    0.4941   20.2707 O   0  0  0  0  0  0  0  0  0  0  0  0
    4.3736    0.6595   21.0641 H   0  0  0  0  0  0  0  0  0  0  0  0
    6.4384    1.1696   17.6945 C   0  0  0  0  0  0  0  0  0  0  0  0
    7.9853   -0.6164   16.7980 C   0  0  0  0  0  0  0  0  0  0  0  0
    7.7766    0.4576   17.6732 C   0  0  0  0  0  0  0  0  0  0  0  0
    8.8178    0.8421   18.5243 C   0  0  0  0  0  0  0  0  0  0  0  0
   10.0281    0.1410   18.5233 C   0  0  0  0  0  0  0  0  0  0  0  0
   10.2183   -0.9666   17.6798 C   0  0  0  0  0  0  0  0  0  0  0  0
   11.4069   -1.7117   17.6736 C   0  0  0  0  0  0  0  0  0  0  0  0
   11.5541   -2.8267   16.8366 C   0  0  0  0  0  0  0  0  0  0  0  0
   10.5157   -3.2317   15.9839 C   0  0  0  0  0  0  0  0  0  0  0  0
    9.3369   -2.4682   15.9808 C   0  0  0  0  0  0  0  0  0  0  0  0
    9.1789   -1.3490   16.8107 C   0  0  0  0  0  0  0  0  0  0  0  0
   10.6315   -4.4301   15.1285 C   0  0  0  0  0  0  0  0  0  0  0  0
    9.5652   -5.1488   14.8462 N   0  0  0  0  0  0  0  0  0  0  0  0
   11.7995   -4.7681   14.6220 N   0  0  0  0  0  0  0  0  0  0  0  0
    8.6535   -4.8790   15.1983 H   0  0  0  0  0  0  0  0  0  0  0  0
    9.6049   -5.9745   14.2645 H   0  0  0  0  0  0  0  0  0  0  0  0
   12.6366   -4.2481   14.8618 H   0  0  0  0  0  0  0  0  0  0  0  0
   11.9161   -5.5560   14.0001 H   0  0  0  0  0  0  0  0  0  0  0  0
 24 25  1  0  0  0
 24 33  2  0  0  0
 25 26  2  0  0  0
 25 23  1  0  0  0
 26 27  1  0  0  0
 27 28  2  0  0  0
 28 29  1  0  0  0
 28 33  1  0  0  0
 29 30  2  0  0  0
 30 31  1  0  0  0
 31 32  2  0  0  0
 31 34  1  0  0  0
 32 33  1  0  0  0
 34 35  2  0  0  0
 34 36  1  0  0  0
 35 37  1  0  0  0
 35 38  1  0  0  0
 36 39  1  0  0  0
 36 40  1  0  0  0
  1  2  1  0  0  0
  1 19  1  0  0  0
  1 23  1  0  0  0
 19 20  2  0  0  0
 19 21  1  0  0  0
 21 22  1  0  0  0
  2  3  1  0  0  0
  2  7  2  0  0  0
  3  4  2  0  0  0
  4  5  1  0  0  0
  5  6  2  0  0  0
  5  8  1  0  0  0
  6  7  1  0  0  0
  8  9  1  0  0  0
  9 10  1  0  0  0
  9 13  1  0  0  0
 10 11  1  0  0  0
 11 12  1  0  0  0
 11 14  1  0  0  0
 12 13  1  0  0  0
 14 15  1  0  0  0
 14 16  1  0  0  0
 15 17  1  0  0  0
 15 18  1  0  0  0
M  END
> <minimizedAffinity>
-10.93617

$$$$
