# created with PyMOL 2.5.0
@<TRIPOS>MOLECULE
data/FXA/cocry_dataset/1fax_DX9_LIG.pdb
64 67 1                 
SMALL
USER_CHARGES
@<TRIPOS>ATOM
1	 H17	3.446	8.445	22.536	 H	1	UNK0	0.000	
2	 H02	7.712	1.872	20.970	 H	1	UNK0	0.000	
3	 H01	6.365	0.655	19.813	 H	1	UNK0	0.000	
4	 H07	4.853	7.852	21.671	 H	1	UNK0	0.000	
5	 H06	6.310	6.165	22.763	 H	1	UNK0	0.000	
6	 H05	4.423	3.728	18.918	 H	1	UNK0	0.000	
7	 H04	5.210	5.949	19.692	 H	1	UNK0	0.000	
8	 H03	8.485	4.090	21.748	 H	1	UNK0	0.000	
9	 H15	4.979	10.239	25.002	 H	1	UNK0	0.000	
10	 H10	7.707	9.803	23.412	 H	1	UNK0	0.000	
11	 H13	5.176	7.399	24.499	 H	1	UNK0	0.000	
12	 H12	8.213	6.995	23.886	 H	1	UNK0	0.000	
13	 H23	8.685	1.693	19.192	 H	1	UNK0	0.000	
14	 H11	8.735	7.945	22.515	 H	1	UNK0	0.000	
15	 H09	7.223	8.833	24.815	 H	1	UNK0	0.000	
16	 H08	6.231	8.813	21.192	 H	1	UNK0	0.000	
17	 H16	2.744	8.994	24.076	 H	1	UNK0	0.000	
18	 H19	3.784	1.292	20.803	 H	1	UNK0	0.000	
19	 H22	7.201	-0.888	16.091	 H	1	UNK0	0.000	
20	 H21	5.741	0.614	17.067	 H	1	UNK0	0.000	
21	 H20	6.608	2.182	17.327	 H	1	UNK0	0.000	
22	 H31	11.876	-5.582	14.028	 H	1	UNK0	0.000	
23	 H26	12.489	-3.387	16.848	 H	1	UNK0	0.000	
24	 H25	12.228	-1.420	18.329	 H	1	UNK0	0.000	
25	 H24	10.834	0.458	19.185	 H	1	UNK0	0.000	
26	 H27	8.522	-2.753	15.315	 H	1	UNK0	0.000	
27	 H30	12.618	-4.214	14.827	 H	1	UNK0	0.000	
28	 H29	8.666	-4.887	15.224	 H	1	UNK0	0.000	
29	 H28	9.647	-5.962	14.252	 H	1	UNK0	0.000	
30	 H14	5.221	9.020	26.087	 H	1	UNK0	0.000	
31	 H18	3.015	7.259	23.792	 H	1	UNK0	0.000	
32	   C	5.827	1.297	19.116	C.3	1	UNK0	0.000	
33	   C	6.078	2.646	19.790	C.2	1	UNK0	0.000	
34	   C	7.180	2.768	20.649	C.2	1	UNK0	0.000	
35	   C	7.610	4.021	21.103	C.2	1	UNK0	0.000	
36	   C	6.929	5.178	20.737	C.2	1	UNK0	0.000	
37	   C	5.778	5.056	19.954	C.2	1	UNK0	0.000	
38	   C	5.341	3.803	19.500	C.2	1	UNK0	0.000	
39	   O	7.289	6.461	21.055	O.3	1	UNK0	0.000	
40	   C	6.781	7.013	22.267	C.3	1	UNK0	0.000	
41	   C	5.839	8.186	21.992	C.3	1	UNK0	0.000	
42	   N	5.784	8.941	23.268	N.3	1	UNK0	0.000	
43	   C	7.188	8.897	23.727	C.3	1	UNK0	0.000	
44	   C	7.862	7.674	23.109	C.3	1	UNK0	0.000	
45	   C	4.811	8.384	24.209	C.3	1	UNK0	0.000	
46	   N	4.666	9.327	25.301	N.3	1	UNK0	0.000	
47	   C	3.402	8.261	23.610	C.3	1	UNK0	0.000	
48	   C	4.403	0.769	19.089	C.2	1	UNK0	0.000	
49	   O	3.806	0.576	18.033	O.co2	1	UNK0	0.000	
50	   O	3.822	0.494	20.271	O.3	1	UNK0	0.000	
51	   C	6.438	1.170	17.694	C.3	1	UNK0	0.000	
52	   C	7.985	-0.616	16.798	C.2	1	UNK0	0.000	
53	   C	7.777	0.458	17.673	C.2	1	UNK0	0.000	
54	   C	8.818	0.842	18.524	C.2	1	UNK0	0.000	
55	   C	10.028	0.141	18.523	C.2	1	UNK0	0.000	
56	   C	10.218	-0.967	17.680	C.2	1	UNK0	0.000	
57	   C	11.407	-1.712	17.674	C.2	1	UNK0	0.000	
58	   C	11.554	-2.827	16.837	C.2	1	UNK0	0.000	
59	   C	10.516	-3.232	15.984	C.2	1	UNK0	0.000	
60	   C	9.337	-2.468	15.981	C.2	1	UNK0	0.000	
61	   C	9.179	-1.349	16.811	C.2	1	UNK0	0.000	
62	   C	10.632	-4.430	15.128	C.2	1	UNK0	0.000	
63	   N	9.565	-5.149	14.846	N.pl3	1	UNK0	0.000	
64	   N	11.800	-4.768	14.622	N.pl3	1	UNK0	0.000	
@<TRIPOS>BOND
1 3 32 1
2 32 33 1
3 32 48 1
4 32 51 1
5 33 34 1
6 33 38 2
7 2 34 1
8 34 35 2
9 8 35 1
10 35 36 1
11 36 37 2
12 36 39 1
13 7 37 1
14 37 38 1
15 6 38 1
16 5 40 1
17 39 40 1
18 40 41 1
19 40 44 1
20 4 41 1
21 16 41 1
22 41 42 1
23 42 43 1
24 42 45 1
25 10 43 1
26 15 43 1
27 43 44 1
28 12 44 1
29 14 44 1
30 11 45 1
31 45 46 1
32 45 47 1
33 9 46 1
34 30 46 1
35 1 47 1
36 17 47 1
37 31 47 1
38 48 49 2
39 48 50 1
40 18 50 1
41 20 51 1
42 21 51 1
43 19 52 1
44 52 53 1
45 52 61 2
46 51 53 1
47 53 54 2
48 13 54 1
49 54 55 1
50 25 55 1
51 55 56 2
52 56 57 1
53 56 61 1
54 24 57 1
55 57 58 2
56 23 58 1
57 58 59 1
58 59 60 2
59 59 62 1
60 26 60 1
61 60 61 1
62 62 63 2
63 62 64 1
64 28 63 1
65 29 63 1
66 22 64 1
67 27 64 1
@<TRIPOS>SUBSTRUCTURE
1	UNK0	1	GROUP	1 ****	UNK
