data/FXA/cocry_dataset/1fjs_Z34_LIG.pdb
 OpenBabel03092321123D

 43 46  0  0  0  0  0  0  0  0999 V2000
    4.9672    7.5113   23.2716 C   0  0  2  0  0  0  0  0  0  0  0  0
    4.7279    6.8547   24.4616 F   0  0  0  0  0  0  0  0  0  0  0  0
    4.3575    6.7872   22.2071 C   0  0  0  0  0  0  0  0  0  0  0  0
    5.1916    5.9852   21.4044 C   0  0  0  0  0  0  0  0  0  0  0  0
    4.6628    5.2770   20.3937 F   0  0  0  0  0  0  0  0  0  0  0  0
    6.5590    5.9195   21.6449 C   0  0  0  0  0  0  0  0  0  0  0  0
    7.1786    6.7777   22.4707 N   0  0  0  0  0  0  0  0  0  0  0  0
    6.3767    7.6270   23.1571 C   0  0  0  0  0  0  0  0  0  0  0  0
    2.9771    6.8399   21.9854 N   0  0  0  0  0  0  0  0  0  0  0  0
    2.3962    7.6526   20.9180 C   0  0  0  0  0  0  0  0  0  0  0  0
    2.0456    5.9517   22.7069 C   0  0  0  0  0  0  0  0  0  0  0  0
    2.6463    4.5883   23.0687 C   0  0  0  0  0  0  0  0  0  0  0  0
    3.1302    4.3217   24.1624 O   0  0  0  0  0  0  0  0  0  0  0  0
    2.5753    3.6623   22.0826 O   0  0  0  0  0  0  0  0  0  0  0  0
    2.3576    4.0556   21.2116 H   0  0  0  0  0  0  0  0  0  0  0  0
    6.9512    8.7168   23.8172 O   0  0  0  0  0  0  0  0  0  0  0  0
    8.2195    8.5786   24.3469 C   0  0  0  0  0  0  0  0  0  0  0  0
    8.5069    7.7845   25.4616 C   0  0  0  0  0  0  0  0  0  0  0  0
    9.8073    7.7184   25.9750 C   0  0  0  0  0  0  0  0  0  0  0  0
   10.8492    8.3923   25.3289 C   0  0  0  0  0  0  0  0  0  0  0  0
   10.5832    9.1282   24.1707 C   0  0  0  0  0  0  0  0  0  0  0  0
    9.2749    9.2158   23.6852 C   0  0  0  0  0  0  0  0  0  0  0  0
    9.0151    9.9303   22.5481 O   0  0  0  0  0  0  0  0  0  0  0  0
    9.8463   10.2972   22.2056 H   0  0  0  0  0  0  0  0  0  0  0  0
   10.0373    6.9575   27.2347 C   0  0  0  0  0  0  0  0  0  0  0  0
    9.1606    6.8783   28.1835 N   0  0  0  0  0  0  0  0  0  0  0  0
   11.2150    6.2948   27.4222 N   0  0  0  0  0  0  0  0  0  0  0  0
    8.3291    7.4351   27.9747 H   0  0  0  0  0  0  0  0  0  0  0  0
   11.6128    5.8612   26.5943 H   0  0  0  0  0  0  0  0  0  0  0  0
   11.1506    5.6478   28.2022 H   0  0  0  0  0  0  0  0  0  0  0  0
    7.4057    5.0871   20.9467 O   0  0  0  0  0  0  0  0  0  0  0  0
    7.1470    3.7335   20.9252 C   0  0  0  0  0  0  0  0  0  0  0  0
    6.2541    3.0856   21.7818 C   0  0  0  0  0  0  0  0  0  0  0  0
    6.0600    1.7105   21.6694 C   0  0  0  0  0  0  0  0  0  0  0  0
    6.7912    0.9761   20.7347 C   0  0  0  0  0  0  0  0  0  0  0  0
    7.6907    1.6065   19.8589 C   0  0  0  0  0  0  0  0  0  0  0  0
    7.8745    2.9912   19.9896 C   0  0  0  0  0  0  0  0  0  0  0  0
    8.4606    0.8726   18.8484 C   0  0  0  0  0  0  0  0  0  0  0  0
    7.9971    0.3474   17.6561 N   0  0  0  0  0  0  0  0  0  0  0  0
    6.6839    0.4425   17.0655 C   0  0  0  0  0  0  0  0  0  0  0  0
    9.0473   -0.2733   17.0266 C   0  0  0  0  0  0  0  0  0  0  0  0
   10.1304   -0.0586   17.8365 C   0  0  0  0  0  0  0  0  0  0  0  0
    9.7650    0.6588   18.9418 N   0  0  0  0  0  0  0  0  0  0  0  0
  1  2  1  1  0  0  0
  1  3  1  0  0  0  0
  1  8  1  0  0  0  0
  3  4  2  0  0  0  0
  3  9  1  0  0  0  0
  4  5  1  0  0  0  0
  4  6  1  0  0  0  0
  6  7  2  0  0  0  0
  6 31  1  0  0  0  0
  7  8  2  0  0  0  0
  8 16  1  0  0  0  0
  9 11  1  0  0  0  0
  9 10  1  0  0  0  0
 11 12  1  0  0  0  0
 12 13  2  0  0  0  0
 12 14  1  0  0  0  0
 14 15  1  0  0  0  0
 16 17  1  0  0  0  0
 17 18  1  0  0  0  0
 17 22  2  0  0  0  0
 18 19  2  0  0  0  0
 19 20  1  0  0  0  0
 19 25  1  0  0  0  0
 20 21  2  0  0  0  0
 21 22  1  0  0  0  0
 22 23  1  0  0  0  0
 23 24  1  0  0  0  0
 25 26  2  0  0  0  0
 25 27  1  0  0  0  0
 26 28  1  0  0  0  0
 27 29  1  0  0  0  0
 27 30  1  0  0  0  0
 31 32  1  0  0  0  0
 32 33  1  0  0  0  0
 32 37  2  0  0  0  0
 33 34  2  0  0  0  0
 34 35  1  0  0  0  0
 35 36  2  0  0  0  0
 36 37  1  0  0  0  0
 36 38  1  0  0  0  0
 38 39  1  0  0  0  0
 38 43  2  0  0  0  0
 39 40  1  0  0  0  0
 39 41  1  0  0  0  0
 41 42  2  0  0  0  0
 42 43  1  0  0  0  0
M  END
>  <minimizedAffinity>
-12.78880

$$$$
