data/FXA/cocry_dataset/1fjs_Z34_LIG.pdb
 OpenBabel03092321123D

 43 46  0  0  0  0  0  0  0  0999 V2000
    5.1668    4.9073   21.3823 C   0  0  2  0  0  0  0  0  0  0  0  0
    5.3948    5.2503   22.6994 F   0  0  0  0  0  0  0  0  0  0  0  0
    4.6482    3.5817   21.3273 C   0  0  0  0  0  0  0  0  0  0  0  0
    5.5360    2.5503   20.9650 C   0  0  0  0  0  0  0  0  0  0  0  0
    5.0968    1.2829   20.9070 F   0  0  0  0  0  0  0  0  0  0  0  0
    6.8640    2.8295   20.6640 C   0  0  0  0  0  0  0  0  0  0  0  0
    7.3009    4.0837   20.4675 N   0  0  0  0  0  0  0  0  0  0  0  0
    6.4045    5.0706   20.7082 C   0  0  0  0  0  0  0  0  0  0  0  0
    3.3162    3.3050   21.6541 N   0  0  0  0  0  0  0  0  0  0  0  0
    2.2073    3.7245   20.7988 C   0  0  0  0  0  0  0  0  0  0  0  0
    2.9665    2.4322   22.7912 C   0  0  0  0  0  0  0  0  0  0  0  0
    2.4335    3.1910   24.0123 C   0  0  0  0  0  0  0  0  0  0  0  0
    1.5778    2.7519   24.7714 O   0  0  0  0  0  0  0  0  0  0  0  0
    3.0106    4.3987   24.2205 O   0  0  0  0  0  0  0  0  0  0  0  0
    3.5194    4.7120   23.4435 H   0  0  0  0  0  0  0  0  0  0  0  0
    6.6899    6.3668   20.2701 O   0  0  0  0  0  0  0  0  0  0  0  0
    7.5294    7.1554   21.0328 C   0  0  0  0  0  0  0  0  0  0  0  0
    7.6900    6.9994   22.4132 C   0  0  0  0  0  0  0  0  0  0  0  0
    8.5259    7.8582   23.1363 C   0  0  0  0  0  0  0  0  0  0  0  0
    9.2678    8.8382   22.4682 C   0  0  0  0  0  0  0  0  0  0  0  0
    9.1694    8.9522   21.0785 C   0  0  0  0  0  0  0  0  0  0  0  0
    8.3058    8.1118   20.3693 C   0  0  0  0  0  0  0  0  0  0  0  0
    8.2141    8.2185   19.0087 O   0  0  0  0  0  0  0  0  0  0  0  0
    8.8193    8.9131   18.7022 H   0  0  0  0  0  0  0  0  0  0  0  0
    8.5678    7.7286   24.6196 C   0  0  0  0  0  0  0  0  0  0  0  0
    9.3961    8.3878   25.3642 N   0  0  0  0  0  0  0  0  0  0  0  0
    7.6979    6.8898   25.2527 N   0  0  0  0  0  0  0  0  0  0  0  0
   10.0329    8.9587   24.8041 H   0  0  0  0  0  0  0  0  0  0  0  0
    6.7640    6.8428   24.8560 H   0  0  0  0  0  0  0  0  0  0  0  0
    7.6828    7.0651   26.2528 H   0  0  0  0  0  0  0  0  0  0  0  0
    7.7937    1.8513   20.3880 O   0  0  0  0  0  0  0  0  0  0  0  0
    7.7847    1.2493   19.1482 C   0  0  0  0  0  0  0  0  0  0  0  0
    6.7944    1.4431   18.1824 C   0  0  0  0  0  0  0  0  0  0  0  0
    6.8863    0.7904   16.9549 C   0  0  0  0  0  0  0  0  0  0  0  0
    7.9401   -0.0910   16.7098 C   0  0  0  0  0  0  0  0  0  0  0  0
    8.9505   -0.2978   17.6637 C   0  0  0  0  0  0  0  0  0  0  0  0
    8.8389    0.3663   18.8944 C   0  0  0  0  0  0  0  0  0  0  0  0
   10.0858   -1.1985   17.4346 C   0  0  0  0  0  0  0  0  0  0  0  0
   10.1428   -2.2763   16.5701 N   0  0  0  0  0  0  0  0  0  0  0  0
    9.1535   -2.7469   15.6309 C   0  0  0  0  0  0  0  0  0  0  0  0
   11.3845   -2.8500   16.6851 C   0  0  0  0  0  0  0  0  0  0  0  0
   12.0616   -2.0669   17.5814 C   0  0  0  0  0  0  0  0  0  0  0  0
   11.2638   -1.0476   18.0224 N   0  0  0  0  0  0  0  0  0  0  0  0
  1  2  1  1  0  0  0
  1  3  1  0  0  0  0
  1  8  1  0  0  0  0
  3  4  2  0  0  0  0
  3  9  1  0  0  0  0
  4  5  1  0  0  0  0
  4  6  1  0  0  0  0
  6  7  2  0  0  0  0
  6 31  1  0  0  0  0
  7  8  2  0  0  0  0
  8 16  1  0  0  0  0
  9 11  1  0  0  0  0
  9 10  1  0  0  0  0
 11 12  1  0  0  0  0
 12 13  2  0  0  0  0
 12 14  1  0  0  0  0
 14 15  1  0  0  0  0
 16 17  1  0  0  0  0
 17 18  1  0  0  0  0
 17 22  2  0  0  0  0
 18 19  2  0  0  0  0
 19 20  1  0  0  0  0
 19 25  1  0  0  0  0
 20 21  2  0  0  0  0
 21 22  1  0  0  0  0
 22 23  1  0  0  0  0
 23 24  1  0  0  0  0
 25 26  2  0  0  0  0
 25 27  1  0  0  0  0
 26 28  1  0  0  0  0
 27 29  1  0  0  0  0
 27 30  1  0  0  0  0
 31 32  1  0  0  0  0
 32 33  1  0  0  0  0
 32 37  2  0  0  0  0
 33 34  2  0  0  0  0
 34 35  1  0  0  0  0
 35 36  2  0  0  0  0
 36 37  1  0  0  0  0
 36 38  1  0  0  0  0
 38 39  1  0  0  0  0
 38 43  2  0  0  0  0
 39 40  1  0  0  0  0
 39 41  1  0  0  0  0
 41 42  2  0  0  0  0
 42 43  1  0  0  0  0
M  END
>  <minimizedAffinity>
-11.48808

$$$$
