data/FXA/cocry_dataset/1fjs_Z34_LIG.pdb
 OpenBabel03092321123D

 43 46  0  0  0  0  0  0  0  0999 V2000
    5.0768    8.0430   22.4322 C   0  0  2  0  0  0  0  0  0  0  0  0
    4.1893    7.4076   23.2766 F   0  0  0  0  0  0  0  0  0  0  0  0
    4.8971    7.5501   21.1079 C   0  0  0  0  0  0  0  0  0  0  0  0
    5.8286    6.6068   20.6329 C   0  0  0  0  0  0  0  0  0  0  0  0
    5.6971    6.1061   19.3940 F   0  0  0  0  0  0  0  0  0  0  0  0
    6.8861    6.1884   21.4321 C   0  0  0  0  0  0  0  0  0  0  0  0
    7.2114    6.8207   22.5708 N   0  0  0  0  0  0  0  0  0  0  0  0
    6.3708    7.8076   22.9644 C   0  0  0  0  0  0  0  0  0  0  0  0
    3.8171    7.9583   20.3176 N   0  0  0  0  0  0  0  0  0  0  0  0
    4.0076    8.6943   19.0690 C   0  0  0  0  0  0  0  0  0  0  0  0
    2.4379    7.5252   20.6135 C   0  0  0  0  0  0  0  0  0  0  0  0
    1.4700    8.6836   20.8818 C   0  0  0  0  0  0  0  0  0  0  0  0
    0.3911    8.8192   20.3170 O   0  0  0  0  0  0  0  0  0  0  0  0
    1.8835    9.5535   21.8344 O   0  0  0  0  0  0  0  0  0  0  0  0
    2.8328    9.4478   22.0544 H   0  0  0  0  0  0  0  0  0  0  0  0
    6.7799    8.6836   23.9737 O   0  0  0  0  0  0  0  0  0  0  0  0
    8.0761    8.5961   24.4434 C   0  0  0  0  0  0  0  0  0  0  0  0
    8.4554    7.7759   25.5107 C   0  0  0  0  0  0  0  0  0  0  0  0
    9.7789    7.7628   25.9658 C   0  0  0  0  0  0  0  0  0  0  0  0
   10.7529    8.5194   25.3054 C   0  0  0  0  0  0  0  0  0  0  0  0
   10.3962    9.2845   24.1914 C   0  0  0  0  0  0  0  0  0  0  0  0
    9.0648    9.3174   23.7653 C   0  0  0  0  0  0  0  0  0  0  0  0
    8.7165   10.0607   22.6712 O   0  0  0  0  0  0  0  0  0  0  0  0
    9.5104   10.4870   22.3099 H   0  0  0  0  0  0  0  0  0  0  0  0
   10.1057    6.9667   27.1816 C   0  0  0  0  0  0  0  0  0  0  0  0
   11.2282    6.3415   27.3372 N   0  0  0  0  0  0  0  0  0  0  0  0
    9.2024    6.8814   28.2004 N   0  0  0  0  0  0  0  0  0  0  0  0
   11.8246    6.4280   26.5114 H   0  0  0  0  0  0  0  0  0  0  0  0
    8.6663    7.7241   28.3852 H   0  0  0  0  0  0  0  0  0  0  0  0
    9.6327    6.5071   29.0406 H   0  0  0  0  0  0  0  0  0  0  0  0
    7.7742    5.2071   21.0502 O   0  0  0  0  0  0  0  0  0  0  0  0
    7.3421    3.8999   20.9881 C   0  0  0  0  0  0  0  0  0  0  0  0
    6.3387    3.3596   21.7957 C   0  0  0  0  0  0  0  0  0  0  0  0
    5.9713    2.0242   21.6446 C   0  0  0  0  0  0  0  0  0  0  0  0
    6.6372    1.2169   20.7213 C   0  0  0  0  0  0  0  0  0  0  0  0
    7.6456    1.7392   19.8944 C   0  0  0  0  0  0  0  0  0  0  0  0
    8.0032    3.0852   20.0635 C   0  0  0  0  0  0  0  0  0  0  0  0
    8.3528    0.9287   18.8966 C   0  0  0  0  0  0  0  0  0  0  0  0
    7.8344    0.3817   17.7372 N   0  0  0  0  0  0  0  0  0  0  0  0
    6.5133    0.5201   17.1735 C   0  0  0  0  0  0  0  0  0  0  0  0
    8.8366   -0.3152   17.1092 C   0  0  0  0  0  0  0  0  0  0  0  0
    9.9487   -0.1242   17.8849 C   0  0  0  0  0  0  0  0  0  0  0  0
    9.6470    0.6531   18.9686 N   0  0  0  0  0  0  0  0  0  0  0  0
  1  2  1  1  0  0  0
  1  3  1  0  0  0  0
  1  8  1  0  0  0  0
  3  4  2  0  0  0  0
  3  9  1  0  0  0  0
  4  5  1  0  0  0  0
  4  6  1  0  0  0  0
  6  7  2  0  0  0  0
  6 31  1  0  0  0  0
  7  8  2  0  0  0  0
  8 16  1  0  0  0  0
  9 11  1  0  0  0  0
  9 10  1  0  0  0  0
 11 12  1  0  0  0  0
 12 13  2  0  0  0  0
 12 14  1  0  0  0  0
 14 15  1  0  0  0  0
 16 17  1  0  0  0  0
 17 18  1  0  0  0  0
 17 22  2  0  0  0  0
 18 19  2  0  0  0  0
 19 20  1  0  0  0  0
 19 25  1  0  0  0  0
 20 21  2  0  0  0  0
 21 22  1  0  0  0  0
 22 23  1  0  0  0  0
 23 24  1  0  0  0  0
 25 26  2  0  0  0  0
 25 27  1  0  0  0  0
 26 28  1  0  0  0  0
 27 29  1  0  0  0  0
 27 30  1  0  0  0  0
 31 32  1  0  0  0  0
 32 33  1  0  0  0  0
 32 37  2  0  0  0  0
 33 34  2  0  0  0  0
 34 35  1  0  0  0  0
 35 36  2  0  0  0  0
 36 37  1  0  0  0  0
 36 38  1  0  0  0  0
 38 39  1  0  0  0  0
 38 43  2  0  0  0  0
 39 40  1  0  0  0  0
 39 41  1  0  0  0  0
 41 42  2  0  0  0  0
 42 43  1  0  0  0  0
M  END
>  <minimizedAffinity>
-12.89387

$$$$
