# created with PyMOL 2.5.0
@<TRIPOS>MOLECULE
data/FXA/cocry_dataset/1fjs_Z34_LIG.pdb
61 64 1                 
SMALL
USER_CHARGES
@<TRIPOS>ATOM
1	 H12	8.272	7.349	28.090	 H	1	UNK0	0.000	
2	 H14	11.372	5.775	28.274	 H	1	UNK0	0.000	
3	 H11	8.752	9.331	21.846	 H	1	UNK0	0.000	
4	 H22	9.024	-0.820	16.084	 H	1	UNK0	0.000	
5	 H01	4.533	8.510	23.234	 H	1	UNK0	0.000	
6	 H15	5.711	3.654	22.536	 H	1	UNK0	0.000	
7	 H20	6.746	0.992	16.126	 H	1	UNK0	0.000	
8	 H17	6.662	-0.105	20.683	 H	1	UNK0	0.000	
9	 H02	1.493	8.140	21.284	 H	1	UNK0	0.000	
10	 H23	11.141	-0.410	17.629	 H	1	UNK0	0.000	
11	 H06	1.740	6.448	23.628	 H	1	UNK0	0.000	
12	 H03	3.115	8.409	20.604	 H	1	UNK0	0.000	
13	 H10	11.395	9.633	23.647	 H	1	UNK0	0.000	
14	 H19	6.016	0.967	17.749	 H	1	UNK0	0.000	
15	 H05	1.206	5.761	22.038	 H	1	UNK0	0.000	
16	 H04	2.146	7.015	20.070	 H	1	UNK0	0.000	
17	 H21	6.296	-0.559	16.877	 H	1	UNK0	0.000	
18	 H16	5.337	1.208	22.312	 H	1	UNK0	0.000	
19	 H09	11.863	8.344	25.727	 H	1	UNK0	0.000	
20	 H08	7.710	7.211	25.935	 H	1	UNK0	0.000	
21	 H07	2.054	2.914	22.382	 H	1	UNK0	0.000	
22	 H18	8.598	3.498	19.350	 H	1	UNK0	0.000	
23	 H13	11.930	6.324	26.709	 H	1	UNK0	0.000	
24	   C	4.967	7.511	23.272	C.3	1	UNK0	0.000	
25	   F	4.728	6.855	24.462	 F	1	UNK0	0.000	
26	   C	4.358	6.787	22.207	C.2	1	UNK0	0.000	
27	   C	5.192	5.985	21.404	C.2	1	UNK0	0.000	
28	   F	4.663	5.277	20.394	 F	1	UNK0	0.000	
29	   C	6.559	5.919	21.645	C.2	1	UNK0	0.000	
30	   N	7.179	6.778	22.471	N.2	1	UNK0	0.000	
31	   C	6.377	7.627	23.157	C.2	1	UNK0	0.000	
32	   N	2.977	6.840	21.985	N.pl3	1	UNK0	0.000	
33	   C	2.396	7.653	20.918	C.3	1	UNK0	0.000	
34	   C	2.046	5.952	22.707	C.3	1	UNK0	0.000	
35	   C	2.646	4.588	23.069	C.2	1	UNK0	0.000	
36	   O	3.130	4.322	24.162	O.co2	1	UNK0	0.000	
37	   O	2.575	3.662	22.083	O.3	1	UNK0	0.000	
38	   O	6.951	8.717	23.817	O.3	1	UNK0	0.000	
39	   C	8.219	8.579	24.347	C.2	1	UNK0	0.000	
40	   C	8.507	7.785	25.462	C.2	1	UNK0	0.000	
41	   C	9.807	7.718	25.975	C.2	1	UNK0	0.000	
42	   C	10.849	8.392	25.329	C.2	1	UNK0	0.000	
43	   C	10.583	9.128	24.171	C.2	1	UNK0	0.000	
44	   C	9.275	9.216	23.685	C.2	1	UNK0	0.000	
45	   O	9.015	9.930	22.548	O.3	1	UNK0	0.000	
46	   C	10.037	6.957	27.235	C.2	1	UNK0	0.000	
47	   N	9.161	6.878	28.184	N.2	1	UNK0	0.000	
48	   N	11.215	6.295	27.422	N.pl3	1	UNK0	0.000	
49	   O	7.406	5.087	20.947	O.3	1	UNK0	0.000	
50	   C	7.147	3.734	20.925	C.2	1	UNK0	0.000	
51	   C	6.254	3.086	21.782	C.2	1	UNK0	0.000	
52	   C	6.060	1.711	21.669	C.2	1	UNK0	0.000	
53	   C	6.791	0.976	20.735	C.2	1	UNK0	0.000	
54	   C	7.691	1.607	19.859	C.2	1	UNK0	0.000	
55	   C	7.874	2.991	19.990	C.2	1	UNK0	0.000	
56	   C	8.461	0.873	18.848	C.2	1	UNK0	0.000	
57	   N	7.997	0.347	17.656	N.pl3	1	UNK0	0.000	
58	   C	6.684	0.442	17.066	C.3	1	UNK0	0.000	
59	   C	9.047	-0.273	17.027	C.2	1	UNK0	0.000	
60	   C	10.130	-0.059	17.837	C.2	1	UNK0	0.000	
61	   N	9.765	0.659	18.942	N.2	1	UNK0	0.000	
@<TRIPOS>BOND
1 5 24 1
2 24 25 1
3 24 26 1
4 24 31 1
5 26 27 2
6 26 32 1
7 27 28 1
8 27 29 1
9 29 30 2
10 29 49 1
11 30 31 2
12 31 38 1
13 32 33 1
14 32 34 1
15 9 33 1
16 12 33 1
17 16 33 1
18 11 34 1
19 15 34 1
20 34 35 1
21 35 36 2
22 35 37 1
23 21 37 1
24 38 39 1
25 39 40 1
26 39 44 2
27 20 40 1
28 40 41 2
29 41 42 1
30 41 46 1
31 19 42 1
32 42 43 2
33 13 43 1
34 43 44 1
35 44 45 1
36 3 45 1
37 46 47 2
38 46 48 1
39 1 47 1
40 2 48 1
41 23 48 1
42 49 50 1
43 50 51 1
44 50 55 2
45 6 51 1
46 51 52 2
47 18 52 1
48 52 53 1
49 8 53 1
50 53 54 2
51 54 55 1
52 54 56 1
53 22 55 1
54 56 57 1
55 56 61 2
56 57 58 1
57 57 59 1
58 7 58 1
59 14 58 1
60 17 58 1
61 4 59 1
62 59 60 2
63 10 60 1
64 60 61 1
@<TRIPOS>SUBSTRUCTURE
1	UNK0	1	GROUP	1 ****	UNK
