# created with PyMOL 2.5.0
@<TRIPOS>MOLECULE
data/FXA/cocry_dataset/1g2l_T87_LIG.pdb
70 74 1                 
SMALL
USER_CHARGES
@<TRIPOS>ATOM
1	 H28	4.642	4.798	22.354	 H	1	UNK0	0.000	
2	 H30	7.044	4.687	18.872	 H	1	UNK0	0.000	
3	 H27	2.893	3.417	23.451	 H	1	UNK0	0.000	
4	 H01	-0.737	1.535	21.276	 H	1	UNK0	0.000	
5	 H13	8.898	0.767	20.267	 H	1	UNK0	0.000	
6	 H31	7.847	4.204	22.294	 H	1	UNK0	0.000	
7	 H03	-0.339	1.905	19.581	 H	1	UNK0	0.000	
8	 H26	4.816	-0.150	22.016	 H	1	UNK0	0.000	
9	 H09	4.783	-1.960	16.551	 H	1	UNK0	0.000	
10	 H04	2.455	3.565	19.247	 H	1	UNK0	0.000	
11	 H07	4.010	0.362	14.381	 H	1	UNK0	0.000	
12	 H06	3.896	-1.180	18.490	 H	1	UNK0	0.000	
13	 H17	6.602	6.019	13.059	 H	1	UNK0	0.000	
14	 H05	4.041	2.987	17.392	 H	1	UNK0	0.000	
15	 H12	10.600	-0.495	18.941	 H	1	UNK0	0.000	
16	 H11	10.208	-0.849	16.538	 H	1	UNK0	0.000	
17	 H02	0.103	3.051	20.870	 H	1	UNK0	0.000	
18	 H10	5.861	-1.353	15.624	 H	1	UNK0	0.000	
19	 H16	5.857	4.072	13.749	 H	1	UNK0	0.000	
20	 H15	4.137	4.286	14.295	 H	1	UNK0	0.000	
21	 H14	6.840	1.623	19.135	 H	1	UNK0	0.000	
22	 H25	6.543	1.225	20.895	 H	1	UNK0	0.000	
23	 H20	8.243	7.553	13.517	 H	1	UNK0	0.000	
24	 H19	9.204	6.056	13.466	 H	1	UNK0	0.000	
25	 H18	7.401	4.712	14.006	 H	1	UNK0	0.000	
26	 H21	8.727	6.753	15.032	 H	1	UNK0	0.000	
27	 H24	2.320	0.944	24.281	 H	1	UNK0	0.000	
28	 H23	1.620	-0.966	23.118	 H	1	UNK0	0.000	
29	 H22	3.170	-0.759	22.123	 H	1	UNK0	0.000	
30	 H08	3.014	-0.064	15.476	 H	1	UNK0	0.000	
31	 H29	5.566	3.757	18.972	 H	1	UNK0	0.000	
32	   C	1.457	0.021	21.253	C.2	1	UNK0	0.000	
33	   N	1.727	-0.715	20.189	N.2	1	UNK0	0.000	
34	   C	2.528	0.136	19.492	C.2	1	UNK0	0.000	
35	   C	2.229	1.461	19.775	C.2	1	UNK0	0.000	
36	   N	1.276	1.327	20.770	N.pl3	1	UNK0	0.000	
37	   C	-0.004	1.996	20.614	C.3	1	UNK0	0.000	
38	   C	2.740	2.533	19.042	C.2	1	UNK0	0.000	
39	   C	3.642	2.196	18.027	C.2	1	UNK0	0.000	
40	   C	4.051	0.869	17.798	C.2	1	UNK0	0.000	
41	   C	3.524	-0.161	18.589	C.2	1	UNK0	0.000	
42	   C	4.924	0.442	16.642	C.3	1	UNK0	0.000	
43	   C	4.100	0.011	15.409	C.3	1	UNK0	0.000	
44	   C	4.959	-0.979	16.110	C.3	1	UNK0	0.000	
45	   C	6.192	1.277	16.510	C.2	1	UNK0	0.000	
46	   N	6.277	2.345	15.751	N.2	1	UNK0	0.000	
47	   C	7.419	0.788	17.228	C.2	1	UNK0	0.000	
48	   N	8.345	0.116	16.491	N.2	1	UNK0	0.000	
49	   C	9.457	-0.315	17.122	C.2	1	UNK0	0.000	
50	   C	9.694	-0.115	18.468	C.2	1	UNK0	0.000	
51	   C	8.742	0.586	19.203	C.2	1	UNK0	0.000	
52	   C	7.587	1.058	18.579	C.2	1	UNK0	0.000	
53	   O	5.098	2.648	15.024	O.3	1	UNK0	0.000	
54	   C	5.153	4.011	14.579	C.3	1	UNK0	0.000	
55	   C	5.593	5.015	15.658	C.2	1	UNK0	0.000	
56	   O	5.349	4.929	16.855	O.co2	1	UNK0	0.000	
57	   O	6.271	6.068	15.090	O.3	1	UNK0	0.000	
58	   C	7.139	5.769	13.974	C.3	1	UNK0	0.000	
59	   C	8.419	6.591	13.999	C.3	1	UNK0	0.000	
60	   C	2.249	-0.319	22.507	C.3	1	UNK0	0.000	
61	   N	2.711	0.765	23.367	N.pl3	1	UNK0	0.000	
62	   C	5.667	3.093	21.514	C.2	1	UNK0	0.000	
63	   C	5.736	1.707	21.446	C.2	1	UNK0	0.000	
64	   C	4.770	0.937	22.087	C.2	1	UNK0	0.000	
65	   C	3.742	1.536	22.818	C.2	1	UNK0	0.000	
66	   C	3.695	2.933	22.894	C.2	1	UNK0	0.000	
67	   C	4.666	3.712	22.262	C.2	1	UNK0	0.000	
68	   N	6.394	4.132	19.411	N.pl3	1	UNK0	0.000	
69	   C	6.636	3.890	20.734	C.2	1	UNK0	0.000	
70	   N	7.685	4.378	21.312	N.2	1	UNK0	0.000	
@<TRIPOS>BOND
1 32 33 2
2 32 36 1
3 33 34 1
4 34 35 1
5 34 41 2
6 35 36 1
7 35 38 2
8 36 37 1
9 4 37 1
10 7 37 1
11 17 37 1
12 10 38 1
13 38 39 1
14 14 39 1
15 39 40 2
16 40 41 1
17 40 42 1
18 12 41 1
19 42 43 1
20 42 44 1
21 42 45 1
22 11 43 1
23 30 43 1
24 43 44 1
25 9 44 1
26 18 44 1
27 45 46 2
28 45 47 1
29 46 53 1
30 47 48 1
31 47 52 2
32 48 49 2
33 16 49 1
34 49 50 1
35 15 50 1
36 50 51 2
37 5 51 1
38 51 52 1
39 21 52 1
40 53 54 1
41 19 54 1
42 20 54 1
43 54 55 1
44 55 56 2
45 55 57 1
46 57 58 1
47 13 58 1
48 25 58 1
49 58 59 1
50 23 59 1
51 24 59 1
52 26 59 1
53 28 60 1
54 29 60 1
55 32 60 1
56 27 61 1
57 60 61 1
58 62 63 1
59 62 67 2
60 22 63 1
61 63 64 2
62 8 64 1
63 64 65 1
64 61 65 1
65 65 66 2
66 3 66 1
67 66 67 1
68 1 67 1
69 2 68 1
70 31 68 1
71 68 69 1
72 62 69 1
73 69 70 2
74 6 70 1
@<TRIPOS>SUBSTRUCTURE
1	UNK0	1	GROUP	1 ****	UNK
