# created with PyMOL 2.5.0
@<TRIPOS>MOLECULE
data/FXA/cocry_dataset/1g2m_R11_LIG.pdb
57 61 1                 
SMALL
USER_CHARGES
@<TRIPOS>ATOM
1	 H22	9.000	1.844	19.871	 H	1	UNK0	0.000	
2	 H24	3.757	1.226	19.507	 H	1	UNK0	0.000	
3	 H23	3.451	-0.148	18.417	 H	1	UNK0	0.000	
4	 H25	3.652	1.489	17.749	 H	1	UNK0	0.000	
5	 H01	7.316	4.051	11.299	 H	1	UNK0	0.000	
6	 H13	5.049	6.403	16.156	 H	1	UNK0	0.000	
7	 H03	6.507	5.275	12.307	 H	1	UNK0	0.000	
8	 H09	2.406	5.153	12.269	 H	1	UNK0	0.000	
9	 H10	3.095	2.665	16.961	 H	1	UNK0	0.000	
10	 H02	5.845	4.859	10.707	 H	1	UNK0	0.000	
11	 H08	2.488	3.235	11.015	 H	1	UNK0	0.000	
12	 H07	2.679	2.332	12.600	 H	1	UNK0	0.000	
13	 H18	4.390	-0.351	16.177	 H	1	UNK0	0.000	
14	 H06	5.176	-0.703	13.345	 H	1	UNK0	0.000	
15	 H12	4.254	6.321	13.804	 H	1	UNK0	0.000	
16	 H04	7.143	3.734	14.665	 H	1	UNK0	0.000	
17	 H11	2.259	2.602	14.637	 H	1	UNK0	0.000	
18	 H14	6.404	3.518	17.628	 H	1	UNK0	0.000	
19	 H17	5.834	-1.404	15.796	 H	1	UNK0	0.000	
20	 H16	3.079	5.507	18.799	 H	1	UNK0	0.000	
21	 H15	6.222	3.950	19.314	 H	1	UNK0	0.000	
22	 H05	6.962	1.854	16.323	 H	1	UNK0	0.000	
23	 H21	10.959	0.876	18.668	 H	1	UNK0	0.000	
24	 H20	10.639	-0.849	16.930	 H	1	UNK0	0.000	
25	 H19	8.336	-1.527	16.213	 H	1	UNK0	0.000	
26	   C	4.472	2.770	11.616	C.2	1	UNK0	0.000	
27	   N	4.817	1.490	11.608	N.2	1	UNK0	0.000	
28	   C	5.436	1.383	12.817	C.2	1	UNK0	0.000	
29	   C	5.937	2.617	13.226	C.2	1	UNK0	0.000	
30	   N	5.545	3.438	12.192	N.pl3	1	UNK0	0.000	
31	   C	6.352	4.469	11.590	C.3	1	UNK0	0.000	
32	   C	6.604	2.815	14.435	C.2	1	UNK0	0.000	
33	   C	6.528	1.742	15.329	C.2	1	UNK0	0.000	
34	   C	5.909	0.518	14.991	C.2	1	UNK0	0.000	
35	   C	5.473	0.291	13.679	C.2	1	UNK0	0.000	
36	   C	3.034	3.134	11.953	C.3	1	UNK0	0.000	
37	   N	2.834	4.352	12.712	N.pl3	1	UNK0	0.000	
38	   C	4.154	4.517	16.690	C.2	1	UNK0	0.000	
39	   C	3.357	3.464	16.267	C.2	1	UNK0	0.000	
40	   C	2.894	3.430	14.955	C.2	1	UNK0	0.000	
41	   C	3.222	4.431	14.033	C.2	1	UNK0	0.000	
42	   C	4.002	5.511	14.489	C.2	1	UNK0	0.000	
43	   C	4.457	5.555	15.812	C.2	1	UNK0	0.000	
44	   N	5.867	3.947	18.368	N.pl3	1	UNK0	0.000	
45	   C	4.661	4.523	18.090	C.2	1	UNK0	0.000	
46	   N	3.967	5.080	19.019	N.2	1	UNK0	0.000	
47	   C	5.475	-0.418	16.089	C.3	1	UNK0	0.000	
48	   N	6.047	-0.163	17.400	N.pl3	1	UNK0	0.000	
49	   C	5.441	0.569	18.405	C.2	1	UNK0	0.000	
50	   N	6.348	1.130	19.180	N.2	1	UNK0	0.000	
51	   C	7.563	0.726	18.689	C.2	1	UNK0	0.000	
52	   C	7.405	-0.170	17.641	C.2	1	UNK0	0.000	
53	   C	8.486	-0.784	16.996	C.2	1	UNK0	0.000	
54	   C	9.767	-0.396	17.403	C.2	1	UNK0	0.000	
55	   C	9.950	0.560	18.403	C.2	1	UNK0	0.000	
56	   C	8.853	1.118	19.070	C.2	1	UNK0	0.000	
57	   C	3.978	0.800	18.528	C.3	1	UNK0	0.000	
@<TRIPOS>BOND
1 26 27 2
2 26 30 1
3 27 28 1
4 28 29 1
5 28 35 2
6 29 30 1
7 29 32 2
8 30 31 1
9 5 31 1
10 7 31 1
11 10 31 1
12 16 32 1
13 32 33 1
14 22 33 1
15 33 34 2
16 34 35 1
17 34 47 1
18 14 35 1
19 11 36 1
20 12 36 1
21 26 36 1
22 8 37 1
23 36 37 1
24 38 39 1
25 38 43 2
26 9 39 1
27 39 40 2
28 17 40 1
29 40 41 1
30 37 41 1
31 41 42 2
32 15 42 1
33 42 43 1
34 6 43 1
35 18 44 1
36 21 44 1
37 44 45 1
38 38 45 1
39 45 46 2
40 20 46 1
41 13 47 1
42 19 47 1
43 47 48 1
44 48 49 1
45 48 52 1
46 49 50 2
47 49 57 1
48 50 51 1
49 51 52 1
50 51 56 2
51 52 53 2
52 25 53 1
53 53 54 1
54 24 54 1
55 54 55 2
56 23 55 1
57 55 56 1
58 1 56 1
59 2 57 1
60 3 57 1
61 4 57 1
@<TRIPOS>SUBSTRUCTURE
1	UNK0	1	GROUP	1 ****	UNK
