data/FXA/cocry_dataset/1g2m_R11_LIG.pdb
 OpenBabel03092321123D

 36 40  0  0  0  0  0  0  0  0999 V2000
    4.4721    2.7699   11.6158 C   0  0  0  0  0  0  0  0  0  0  0  0
    4.8166    1.4895   11.6080 N   0  0  0  0  0  0  0  0  0  0  0  0
    5.4364    1.3833   12.8171 C   0  0  0  0  0  0  0  0  0  0  0  0
    5.9372    2.6173   13.2260 C   0  0  0  0  0  0  0  0  0  0  0  0
    5.5448    3.4380   12.1922 N   0  0  0  0  0  0  0  0  0  0  0  0
    6.3523    4.4690   11.5898 C   0  0  0  0  0  0  0  0  0  0  0  0
    6.6041    2.8152   14.4351 C   0  0  0  0  0  0  0  0  0  0  0  0
    6.5276    1.7419   15.3294 C   0  0  0  0  0  0  0  0  0  0  0  0
    5.9085    0.5184   14.9914 C   0  0  0  0  0  0  0  0  0  0  0  0
    5.4735    0.2909   13.6785 C   0  0  0  0  0  0  0  0  0  0  0  0
    3.0337    3.1343   11.9535 C   0  0  0  0  0  0  0  0  0  0  0  0
    2.8338    4.3525   12.7122 N   0  0  0  0  0  0  0  0  0  0  0  0
    2.0545    4.9221   12.4014 H   0  0  0  0  0  0  0  0  0  0  0  0
    4.1536    4.5173   16.6899 C   0  0  0  0  0  0  0  0  0  0  0  0
    3.3571    3.4640   16.2672 C   0  0  0  0  0  0  0  0  0  0  0  0
    2.8936    3.4297   14.9550 C   0  0  0  0  0  0  0  0  0  0  0  0
    3.2216    4.4311   14.0328 C   0  0  0  0  0  0  0  0  0  0  0  0
    4.0017    5.5110   14.4886 C   0  0  0  0  0  0  0  0  0  0  0  0
    4.4568    5.5553   15.8120 C   0  0  0  0  0  0  0  0  0  0  0  0
    5.8666    3.9475   18.3682 N   0  0  0  0  0  0  0  0  0  0  0  0
    4.6613    4.5235   18.0905 C   0  0  0  0  0  0  0  0  0  0  0  0
    3.9675    5.0797   19.0191 N   0  0  0  0  0  0  0  0  0  0  0  0
    6.2960    4.2255   19.2398 H   0  0  0  0  0  0  0  0  0  0  0  0
    6.5442    3.9465   17.6034 H   0  0  0  0  0  0  0  0  0  0  0  0
    4.4308    4.9553   19.9166 H   0  0  0  0  0  0  0  0  0  0  0  0
    5.4745   -0.4179   16.0887 C   0  0  0  0  0  0  0  0  0  0  0  0
    6.0470   -0.1626   17.3997 N   0  0  0  0  0  0  0  0  0  0  0  0
    5.4413    0.5690   18.4052 C   0  0  0  0  0  0  0  0  0  0  0  0
    6.3485    1.1297   19.1801 N   0  0  0  0  0  0  0  0  0  0  0  0
    7.5632    0.7263   18.6892 C   0  0  0  0  0  0  0  0  0  0  0  0
    7.4055   -0.1704   17.6413 C   0  0  0  0  0  0  0  0  0  0  0  0
    8.4862   -0.7836   16.9956 C   0  0  0  0  0  0  0  0  0  0  0  0
    9.7673   -0.3962   17.4026 C   0  0  0  0  0  0  0  0  0  0  0  0
    9.9503    0.5604   18.4033 C   0  0  0  0  0  0  0  0  0  0  0  0
    8.8531    1.1185   19.0705 C   0  0  0  0  0  0  0  0  0  0  0  0
    3.9780    0.7998   18.5277 C   0  0  0  0  0  0  0  0  0  0  0  0
  1  2  2  0  0  0  0
  1  5  1  0  0  0  0
  2  3  1  0  0  0  0
  3  4  1  0  0  0  0
  3 10  2  0  0  0  0
  4  5  1  0  0  0  0
  4  7  2  0  0  0  0
  5  6  1  0  0  0  0
  7  8  1  0  0  0  0
  8  9  2  0  0  0  0
  9 10  1  0  0  0  0
  9 26  1  0  0  0  0
 11  1  1  0  0  0  0
 12 11  1  0  0  0  0
 12 13  1  0  0  0  0
 14 15  1  0  0  0  0
 14 19  2  0  0  0  0
 15 16  2  0  0  0  0
 16 17  1  0  0  0  0
 17 18  2  0  0  0  0
 17 12  1  0  0  0  0
 18 19  1  0  0  0  0
 20 21  1  0  0  0  0
 20 23  1  0  0  0  0
 20 24  1  0  0  0  0
 21 22  2  0  0  0  0
 21 14  1  0  0  0  0
 22 25  1  0  0  0  0
 26 27  1  0  0  0  0
 27 28  1  0  0  0  0
 27 31  1  0  0  0  0
 28 29  2  0  0  0  0
 28 36  1  0  0  0  0
 29 30  1  0  0  0  0
 30 31  1  0  0  0  0
 30 35  2  0  0  0  0
 31 32  2  0  0  0  0
 32 33  1  0  0  0  0
 33 34  2  0  0  0  0
 34 35  1  0  0  0  0
M  END
>  <minimizedAffinity>
-9.23923

$$$$
