# created with PyMOL 2.5.0
@<TRIPOS>MOLECULE
data/FXA/cocry_dataset/1g2m_R11_LIG.pdb
57 61 1                 
SMALL
USER_CHARGES
@<TRIPOS>ATOM
1	 H22	9.643	-2.622	15.727	 H	1	UNK0	0.000	
2	 H24	5.062	1.084	16.090	 H	1	UNK0	0.000	
3	 H23	4.619	0.081	17.492	 H	1	UNK0	0.000	
4	 H25	4.776	-0.660	15.882	 H	1	UNK0	0.000	
5	 H01	7.380	7.306	20.644	 H	1	UNK0	0.000	
6	 H13	4.986	0.204	21.691	 H	1	UNK0	0.000	
7	 H03	6.627	7.258	22.256	 H	1	UNK0	0.000	
8	 H09	4.452	5.097	23.342	 H	1	UNK0	0.000	
9	 H10	1.745	0.968	24.403	 H	1	UNK0	0.000	
10	 H02	5.780	8.043	20.901	 H	1	UNK0	0.000	
11	 H08	2.847	6.080	21.793	 H	1	UNK0	0.000	
12	 H07	2.899	4.473	20.910	 H	1	UNK0	0.000	
13	 H18	7.300	0.381	19.936	 H	1	UNK0	0.000	
14	 H06	5.216	2.836	17.941	 H	1	UNK0	0.000	
15	 H12	5.386	2.645	21.471	 H	1	UNK0	0.000	
16	 H04	8.370	4.608	21.436	 H	1	UNK0	0.000	
17	 H11	2.170	3.395	24.226	 H	1	UNK0	0.000	
18	 H14	3.678	-1.160	25.091	 H	1	UNK0	0.000	
19	 H17	5.705	0.607	19.074	 H	1	UNK0	0.000	
20	 H16	2.330	-1.152	21.275	 H	1	UNK0	0.000	
21	 H15	3.092	-2.654	24.394	 H	1	UNK0	0.000	
22	 H05	8.600	2.267	20.552	 H	1	UNK0	0.000	
23	 H21	11.698	-2.315	17.107	 H	1	UNK0	0.000	
24	 H20	11.825	-0.506	18.785	 H	1	UNK0	0.000	
25	 H19	9.833	0.936	19.261	 H	1	UNK0	0.000	
26	   C	4.485	5.767	20.476	C.2	1	UNK0	0.000	
27	   N	4.538	5.234	19.263	N.2	1	UNK0	0.000	
28	   C	5.603	4.394	19.399	C.2	1	UNK0	0.000	
29	   C	6.458	4.838	20.404	C.2	1	UNK0	0.000	
30	   N	5.807	5.966	20.851	N.pl3	1	UNK0	0.000	
31	   C	6.437	7.220	21.183	C.3	1	UNK0	0.000	
32	   C	7.622	4.166	20.778	C.2	1	UNK0	0.000	
33	   C	7.753	2.880	20.244	C.2	1	UNK0	0.000	
34	   C	6.828	2.347	19.319	C.2	1	UNK0	0.000	
35	   C	5.815	3.159	18.793	C.2	1	UNK0	0.000	
36	   C	3.451	5.236	21.459	C.3	1	UNK0	0.000	
37	   N	3.960	4.565	22.638	N.pl3	1	UNK0	0.000	
38	   C	3.313	0.440	23.030	C.2	1	UNK0	0.000	
39	   C	2.539	1.334	23.753	C.2	1	UNK0	0.000	
40	   C	2.778	2.702	23.645	C.2	1	UNK0	0.000	
41	   C	3.780	3.209	22.809	C.2	1	UNK0	0.000	
42	   C	4.580	2.285	22.110	C.2	1	UNK0	0.000	
43	   C	4.351	0.909	22.228	C.2	1	UNK0	0.000	
44	   N	3.288	-1.667	24.309	N.pl3	1	UNK0	0.000	
45	   C	3.026	-1.018	23.138	C.2	1	UNK0	0.000	
46	   N	2.523	-1.646	22.135	N.2	1	UNK0	0.000	
47	   C	6.765	0.856	19.114	C.3	1	UNK0	0.000	
48	   N	7.333	0.366	17.869	N.pl3	1	UNK0	0.000	
49	   C	6.609	-0.165	16.817	C.2	1	UNK0	0.000	
50	   N	7.339	-1.031	16.142	N.2	1	UNK0	0.000	
51	   C	8.569	-1.036	16.747	C.2	1	UNK0	0.000	
52	   C	8.630	-0.093	17.764	C.2	1	UNK0	0.000	
53	   C	9.792	0.151	18.506	C.2	1	UNK0	0.000	
54	   C	10.898	-0.661	18.233	C.2	1	UNK0	0.000	
55	   C	10.836	-1.667	17.267	C.2	1	UNK0	0.000	
56	   C	9.679	-1.855	16.500	C.2	1	UNK0	0.000	
57	   C	5.170	0.103	16.552	C.3	1	UNK0	0.000	
@<TRIPOS>BOND
1 26 27 2
2 26 30 1
3 27 28 1
4 28 29 1
5 28 35 2
6 29 30 1
7 29 32 2
8 30 31 1
9 5 31 1
10 7 31 1
11 10 31 1
12 16 32 1
13 32 33 1
14 22 33 1
15 33 34 2
16 34 35 1
17 34 47 1
18 14 35 1
19 11 36 1
20 12 36 1
21 26 36 1
22 8 37 1
23 36 37 1
24 38 39 1
25 38 43 2
26 9 39 1
27 39 40 2
28 17 40 1
29 40 41 1
30 37 41 1
31 41 42 2
32 15 42 1
33 42 43 1
34 6 43 1
35 18 44 1
36 21 44 1
37 44 45 1
38 38 45 1
39 45 46 2
40 20 46 1
41 13 47 1
42 19 47 1
43 47 48 1
44 48 49 1
45 48 52 1
46 49 50 2
47 49 57 1
48 50 51 1
49 51 52 1
50 51 56 2
51 52 53 2
52 25 53 1
53 53 54 1
54 24 54 1
55 54 55 2
56 23 55 1
57 55 56 1
58 1 56 1
59 2 57 1
60 3 57 1
61 4 57 1
@<TRIPOS>SUBSTRUCTURE
1	UNK0	1	GROUP	1 ****	UNK
