# created with PyMOL 2.5.0
@<TRIPOS>MOLECULE
data/FXA/cocry_dataset/1g2m_R11_LIG.pdb
57 61 1                 
SMALL
USER_CHARGES
@<TRIPOS>ATOM
1	 H22	7.998	-1.299	15.967	 H	1	UNK0	0.000	
2	 H24	4.101	0.795	20.053	 H	1	UNK0	0.000	
3	 H23	3.605	0.162	18.465	 H	1	UNK0	0.000	
4	 H25	3.927	1.901	18.668	 H	1	UNK0	0.000	
5	 H01	3.216	7.034	22.472	 H	1	UNK0	0.000	
6	 H13	5.075	1.982	16.510	 H	1	UNK0	0.000	
7	 H03	4.209	8.272	21.666	 H	1	UNK0	0.000	
8	 H09	5.484	7.370	17.193	 H	1	UNK0	0.000	
9	 H10	6.264	4.679	13.387	 H	1	UNK0	0.000	
10	 H02	4.880	7.338	23.025	 H	1	UNK0	0.000	
11	 H08	4.037	5.279	18.742	 H	1	UNK0	0.000	
12	 H07	3.657	7.074	18.720	 H	1	UNK0	0.000	
13	 H18	7.661	0.926	21.254	 H	1	UNK0	0.000	
14	 H06	7.883	3.598	20.117	 H	1	UNK0	0.000	
15	 H12	4.687	3.905	18.033	 H	1	UNK0	0.000	
16	 H04	3.943	4.218	23.183	 H	1	UNK0	0.000	
17	 H11	5.832	6.598	14.881	 H	1	UNK0	0.000	
18	 H14	6.475	0.761	15.482	 H	1	UNK0	0.000	
19	 H17	5.868	0.579	21.204	 H	1	UNK0	0.000	
20	 H16	5.618	3.119	12.307	 H	1	UNK0	0.000	
21	 H15	6.582	0.087	13.871	 H	1	UNK0	0.000	
22	 H05	4.959	1.947	22.823	 H	1	UNK0	0.000	
23	 H21	10.429	-1.152	16.509	 H	1	UNK0	0.000	
24	 H20	11.217	0.272	18.366	 H	1	UNK0	0.000	
25	 H19	9.583	1.451	19.854	 H	1	UNK0	0.000	
26	   C	5.245	6.525	19.967	C.2	1	UNK0	0.000	
27	   N	6.478	6.042	20.014	N.2	1	UNK0	0.000	
28	   C	6.285	4.916	20.758	C.2	1	UNK0	0.000	
29	   C	5.162	5.048	21.572	C.2	1	UNK0	0.000	
30	   N	4.712	6.305	21.231	N.pl3	1	UNK0	0.000	
31	   C	4.225	7.298	22.154	C.3	1	UNK0	0.000	
32	   C	4.709	4.044	22.427	C.2	1	UNK0	0.000	
33	   C	5.315	2.797	22.240	C.2	1	UNK0	0.000	
34	   C	6.372	2.599	21.324	C.2	1	UNK0	0.000	
35	   C	6.949	3.697	20.671	C.2	1	UNK0	0.000	
36	   C	4.422	6.298	18.707	C.3	1	UNK0	0.000	
37	   N	5.112	6.465	17.443	N.pl3	1	UNK0	0.000	
38	   C	5.732	3.213	14.868	C.2	1	UNK0	0.000	
39	   C	5.926	4.507	14.409	C.2	1	UNK0	0.000	
40	   C	5.687	5.585	15.257	C.2	1	UNK0	0.000	
41	   C	5.266	5.401	16.579	C.2	1	UNK0	0.000	
42	   C	5.040	4.082	17.018	C.2	1	UNK0	0.000	
43	   C	5.265	2.997	16.162	C.2	1	UNK0	0.000	
44	   N	6.390	0.869	14.482	N.pl3	1	UNK0	0.000	
45	   C	6.018	2.071	13.955	C.2	1	UNK0	0.000	
46	   N	5.900	2.225	12.684	N.2	1	UNK0	0.000	
47	   C	6.687	1.204	20.851	C.3	1	UNK0	0.000	
48	   N	6.731	1.022	19.410	N.pl3	1	UNK0	0.000	
49	   C	5.652	0.676	18.618	C.2	1	UNK0	0.000	
50	   N	6.055	0.018	17.549	N.2	1	UNK0	0.000	
51	   C	7.422	-0.033	17.632	C.2	1	UNK0	0.000	
52	   C	7.882	0.680	18.730	C.2	1	UNK0	0.000	
53	   C	9.243	0.839	19.018	C.2	1	UNK0	0.000	
54	   C	10.147	0.175	18.182	C.2	1	UNK0	0.000	
55	   C	9.704	-0.610	17.116	C.2	1	UNK0	0.000	
56	   C	8.340	-0.709	16.817	C.2	1	UNK0	0.000	
57	   C	4.226	0.899	18.975	C.3	1	UNK0	0.000	
@<TRIPOS>BOND
1 26 27 2
2 26 30 1
3 27 28 1
4 28 29 1
5 28 35 2
6 29 30 1
7 29 32 2
8 30 31 1
9 5 31 1
10 7 31 1
11 10 31 1
12 16 32 1
13 32 33 1
14 22 33 1
15 33 34 2
16 34 35 1
17 34 47 1
18 14 35 1
19 11 36 1
20 12 36 1
21 26 36 1
22 8 37 1
23 36 37 1
24 38 39 1
25 38 43 2
26 9 39 1
27 39 40 2
28 17 40 1
29 40 41 1
30 37 41 1
31 41 42 2
32 15 42 1
33 42 43 1
34 6 43 1
35 18 44 1
36 21 44 1
37 44 45 1
38 38 45 1
39 45 46 2
40 20 46 1
41 13 47 1
42 19 47 1
43 47 48 1
44 48 49 1
45 48 52 1
46 49 50 2
47 49 57 1
48 50 51 1
49 51 52 1
50 51 56 2
51 52 53 2
52 25 53 1
53 53 54 1
54 24 54 1
55 54 55 2
56 23 55 1
57 55 56 1
58 1 56 1
59 2 57 1
60 3 57 1
61 4 57 1
@<TRIPOS>SUBSTRUCTURE
1	UNK0	1	GROUP	1 ****	UNK
