data/FXA/cocry_dataset/1g2m_R11_LIG.pdb


 36 40  0  0  0  0  0  0  0  0999 V2000
    5.2445    6.5253   19.9669 C   0  0  0  0  0  0  0  0  0  0  0  0
    6.4785    6.0423   20.0144 N   0  0  0  0  0  0  0  0  0  0  0  0
    6.2848    4.9164   20.7576 C   0  0  0  0  0  0  0  0  0  0  0  0
    5.1619    5.0484   21.5715 C   0  0  0  0  0  0  0  0  0  0  0  0
    4.7121    6.3045   21.2306 N   0  0  0  0  0  0  0  0  0  0  0  0
    4.2247    7.2979   22.1545 C   0  0  0  0  0  0  0  0  0  0  0  0
    4.7092    4.0444   22.4275 C   0  0  0  0  0  0  0  0  0  0  0  0
    5.3150    2.7971   22.2404 C   0  0  0  0  0  0  0  0  0  0  0  0
    6.3716    2.5992   21.3245 C   0  0  0  0  0  0  0  0  0  0  0  0
    6.9491    3.6966   20.6713 C   0  0  0  0  0  0  0  0  0  0  0  0
    4.4224    6.2982   18.7066 C   0  0  0  0  0  0  0  0  0  0  0  0
    5.1121    6.4647   17.4431 N   0  0  0  0  0  0  0  0  0  0  0  0
    5.8105    7.1999   17.4353 H   0  0  0  0  0  0  0  0  0  0  0  0
    5.7324    3.2128   14.8681 C   0  0  0  0  0  0  0  0  0  0  0  0
    5.9258    4.5067   14.4091 C   0  0  0  0  0  0  0  0  0  0  0  0
    5.6871    5.5849   15.2566 C   0  0  0  0  0  0  0  0  0  0  0  0
    5.2655    5.4013   16.5793 C   0  0  0  0  0  0  0  0  0  0  0  0
    5.0402    4.0824   17.0176 C   0  0  0  0  0  0  0  0  0  0  0  0
    5.2653    2.9969   16.1623 C   0  0  0  0  0  0  0  0  0  0  0  0
    6.3904    0.8689   14.4816 N   0  0  0  0  0  0  0  0  0  0  0  0
    6.0179    2.0710   13.9546 C   0  0  0  0  0  0  0  0  0  0  0  0
    5.8996    2.2248   12.6836 N   0  0  0  0  0  0  0  0  0  0  0  0
    6.2878    0.0705   13.8705 H   0  0  0  0  0  0  0  0  0  0  0  0
    6.0375    0.6674   15.4192 H   0  0  0  0  0  0  0  0  0  0  0  0
    6.1747    1.3692   12.2061 H   0  0  0  0  0  0  0  0  0  0  0  0
    6.6874    1.2045   20.8511 C   0  0  0  0  0  0  0  0  0  0  0  0
    6.7311    1.0216   19.4102 N   0  0  0  0  0  0  0  0  0  0  0  0
    5.6516    0.6757   18.6176 C   0  0  0  0  0  0  0  0  0  0  0  0
    6.0545    0.0180   17.5485 N   0  0  0  0  0  0  0  0  0  0  0  0
    7.4219   -0.0332   17.6320 C   0  0  0  0  0  0  0  0  0  0  0  0
    7.8822    0.6801   18.7303 C   0  0  0  0  0  0  0  0  0  0  0  0
    9.2434    0.8388   19.0182 C   0  0  0  0  0  0  0  0  0  0  0  0
   10.1472    0.1750   18.1820 C   0  0  0  0  0  0  0  0  0  0  0  0
    9.7040   -0.6100   17.1156 C   0  0  0  0  0  0  0  0  0  0  0  0
    8.3397   -0.7086   16.8167 C   0  0  0  0  0  0  0  0  0  0  0  0
    4.2261    0.8987   18.9750 C   0  0  0  0  0  0  0  0  0  0  0  0
 20 21  1  0  0  0
 20 23  1  0  0  0
 20 24  1  0  0  0
 21 22  2  0  0  0
 21 14  1  0  0  0
 22 25  1  0  0  0
 14 15  1  0  0  0
 14 19  2  0  0  0
 15 16  2  0  0  0
 16 17  1  0  0  0
 17 18  2  0  0  0
 17 12  1  0  0  0
 18 19  1  0  0  0
 12 11  1  0  0  0
 12 13  1  0  0  0
 11  1  1  0  0  0
  1  2  2  0  0  0
  1  5  1  0  0  0
  2  3  1  0  0  0
  3  4  1  0  0  0
  3 10  2  0  0  0
  4  5  1  0  0  0
  4  7  2  0  0  0
  5  6  1  0  0  0
  7  8  1  0  0  0
  8  9  2  0  0  0
  9 10  1  0  0  0
  9 26  1  0  0  0
 26 27  1  0  0  0
 27 28  1  0  0  0
 27 31  1  0  0  0
 28 29  2  0  0  0
 28 36  1  0  0  0
 29 30  1  0  0  0
 30 31  1  0  0  0
 30 35  2  0  0  0
 31 32  2  0  0  0
 32 33  1  0  0  0
 33 34  2  0  0  0
 34 35  1  0  0  0
M  END
> <minimizedAffinity>
-10.06449

$$$$
data/FXA/cocry_dataset/1g2m_R11_LIG.pdb


 36 40  0  0  0  0  0  0  0  0999 V2000
    4.4846    5.7666   20.4761 C   0  0  0  0  0  0  0  0  0  0  0  0
    4.5382    5.2336   19.2632 N   0  0  0  0  0  0  0  0  0  0  0  0
    5.6028    4.3936   19.3989 C   0  0  0  0  0  0  0  0  0  0  0  0
    6.4584    4.8384   20.4043 C   0  0  0  0  0  0  0  0  0  0  0  0
    5.8070    5.9664   20.8510 N   0  0  0  0  0  0  0  0  0  0  0  0
    6.4367    7.2198   21.1832 C   0  0  0  0  0  0  0  0  0  0  0  0
    7.6219    4.1660   20.7783 C   0  0  0  0  0  0  0  0  0  0  0  0
    7.7534    2.8797   20.2438 C   0  0  0  0  0  0  0  0  0  0  0  0
    6.8284    2.3466   19.3193 C   0  0  0  0  0  0  0  0  0  0  0  0
    5.8149    3.1590   18.7926 C   0  0  0  0  0  0  0  0  0  0  0  0
    3.4507    5.2362   21.4588 C   0  0  0  0  0  0  0  0  0  0  0  0
    3.9601    4.5654   22.6378 N   0  0  0  0  0  0  0  0  0  0  0  0
    4.0320    5.1525   23.4615 H   0  0  0  0  0  0  0  0  0  0  0  0
    3.3134    0.4400   23.0298 C   0  0  0  0  0  0  0  0  0  0  0  0
    2.5388    1.3345   23.7525 C   0  0  0  0  0  0  0  0  0  0  0  0
    2.7781    2.7017   23.6451 C   0  0  0  0  0  0  0  0  0  0  0  0
    3.7803    3.2093   22.8092 C   0  0  0  0  0  0  0  0  0  0  0  0
    4.5802    2.2853   22.1101 C   0  0  0  0  0  0  0  0  0  0  0  0
    4.3511    0.9090   22.2279 C   0  0  0  0  0  0  0  0  0  0  0  0
    3.2877   -1.6669   24.3089 N   0  0  0  0  0  0  0  0  0  0  0  0
    3.0255   -1.0177   23.1379 C   0  0  0  0  0  0  0  0  0  0  0  0
    2.5235   -1.6459   22.1346 N   0  0  0  0  0  0  0  0  0  0  0  0
    2.8183   -2.5531   24.4346 H   0  0  0  0  0  0  0  0  0  0  0  0
    3.2353   -1.0951   25.1542 H   0  0  0  0  0  0  0  0  0  0  0  0
    2.4334   -2.6348   22.3574 H   0  0  0  0  0  0  0  0  0  0  0  0
    6.7653    0.8557   19.1135 C   0  0  0  0  0  0  0  0  0  0  0  0
    7.3330    0.3655   17.8689 N   0  0  0  0  0  0  0  0  0  0  0  0
    6.6086   -0.1647   16.8167 C   0  0  0  0  0  0  0  0  0  0  0  0
    7.3386   -1.0307   16.1423 N   0  0  0  0  0  0  0  0  0  0  0  0
    8.5689   -1.0363   16.7469 C   0  0  0  0  0  0  0  0  0  0  0  0
    8.6301   -0.0930   17.7635 C   0  0  0  0  0  0  0  0  0  0  0  0
    9.7919    0.1506   18.5063 C   0  0  0  0  0  0  0  0  0  0  0  0
   10.8978   -0.6613   18.2331 C   0  0  0  0  0  0  0  0  0  0  0  0
   10.8359   -1.6673   17.2667 C   0  0  0  0  0  0  0  0  0  0  0  0
    9.6792   -1.8546   16.5002 C   0  0  0  0  0  0  0  0  0  0  0  0
    5.1705    0.1030   16.5520 C   0  0  0  0  0  0  0  0  0  0  0  0
 20 21  1  0  0  0
 20 23  1  0  0  0
 20 24  1  0  0  0
 21 22  2  0  0  0
 21 14  1  0  0  0
 22 25  1  0  0  0
 14 15  1  0  0  0
 14 19  2  0  0  0
 15 16  2  0  0  0
 16 17  1  0  0  0
 17 18  2  0  0  0
 17 12  1  0  0  0
 18 19  1  0  0  0
 12 11  1  0  0  0
 12 13  1  0  0  0
 11  1  1  0  0  0
  1  2  2  0  0  0
  1  5  1  0  0  0
  2  3  1  0  0  0
  3  4  1  0  0  0
  3 10  2  0  0  0
  4  5  1  0  0  0
  4  7  2  0  0  0
  5  6  1  0  0  0
  7  8  1  0  0  0
  8  9  2  0  0  0
  9 10  1  0  0  0
  9 26  1  0  0  0
 26 27  1  0  0  0
 27 28  1  0  0  0
 27 31  1  0  0  0
 28 29  2  0  0  0
 28 36  1  0  0  0
 29 30  1  0  0  0
 30 31  1  0  0  0
 30 35  2  0  0  0
 31 32  2  0  0  0
 32 33  1  0  0  0
 33 34  2  0  0  0
 34 35  1  0  0  0
M  END
> <minimizedAffinity>
-9.61944

$$$$
data/FXA/cocry_dataset/1g2m_R11_LIG.pdb


 36 40  0  0  0  0  0  0  0  0999 V2000
    4.4721    2.7699   11.6158 C   0  0  0  0  0  0  0  0  0  0  0  0
    4.8166    1.4895   11.6080 N   0  0  0  0  0  0  0  0  0  0  0  0
    5.4364    1.3833   12.8171 C   0  0  0  0  0  0  0  0  0  0  0  0
    5.9372    2.6173   13.2260 C   0  0  0  0  0  0  0  0  0  0  0  0
    5.5448    3.4380   12.1922 N   0  0  0  0  0  0  0  0  0  0  0  0
    6.3523    4.4690   11.5898 C   0  0  0  0  0  0  0  0  0  0  0  0
    6.6041    2.8152   14.4351 C   0  0  0  0  0  0  0  0  0  0  0  0
    6.5276    1.7419   15.3294 C   0  0  0  0  0  0  0  0  0  0  0  0
    5.9085    0.5184   14.9914 C   0  0  0  0  0  0  0  0  0  0  0  0
    5.4735    0.2909   13.6785 C   0  0  0  0  0  0  0  0  0  0  0  0
    3.0337    3.1343   11.9535 C   0  0  0  0  0  0  0  0  0  0  0  0
    2.8338    4.3525   12.7122 N   0  0  0  0  0  0  0  0  0  0  0  0
    2.0545    4.9221   12.4014 H   0  0  0  0  0  0  0  0  0  0  0  0
    4.1536    4.5173   16.6899 C   0  0  0  0  0  0  0  0  0  0  0  0
    3.3571    3.4640   16.2672 C   0  0  0  0  0  0  0  0  0  0  0  0
    2.8936    3.4297   14.9550 C   0  0  0  0  0  0  0  0  0  0  0  0
    3.2216    4.4311   14.0328 C   0  0  0  0  0  0  0  0  0  0  0  0
    4.0017    5.5110   14.4886 C   0  0  0  0  0  0  0  0  0  0  0  0
    4.4568    5.5553   15.8120 C   0  0  0  0  0  0  0  0  0  0  0  0
    5.8666    3.9475   18.3682 N   0  0  0  0  0  0  0  0  0  0  0  0
    4.6613    4.5235   18.0905 C   0  0  0  0  0  0  0  0  0  0  0  0
    3.9675    5.0797   19.0191 N   0  0  0  0  0  0  0  0  0  0  0  0
    6.2960    4.2255   19.2398 H   0  0  0  0  0  0  0  0  0  0  0  0
    6.5442    3.9465   17.6034 H   0  0  0  0  0  0  0  0  0  0  0  0
    4.4308    4.9553   19.9166 H   0  0  0  0  0  0  0  0  0  0  0  0
    5.4745   -0.4179   16.0887 C   0  0  0  0  0  0  0  0  0  0  0  0
    6.0470   -0.1626   17.3997 N   0  0  0  0  0  0  0  0  0  0  0  0
    5.4413    0.5690   18.4052 C   0  0  0  0  0  0  0  0  0  0  0  0
    6.3485    1.1297   19.1801 N   0  0  0  0  0  0  0  0  0  0  0  0
    7.5632    0.7263   18.6892 C   0  0  0  0  0  0  0  0  0  0  0  0
    7.4055   -0.1704   17.6413 C   0  0  0  0  0  0  0  0  0  0  0  0
    8.4862   -0.7836   16.9956 C   0  0  0  0  0  0  0  0  0  0  0  0
    9.7673   -0.3962   17.4026 C   0  0  0  0  0  0  0  0  0  0  0  0
    9.9503    0.5604   18.4033 C   0  0  0  0  0  0  0  0  0  0  0  0
    8.8531    1.1185   19.0705 C   0  0  0  0  0  0  0  0  0  0  0  0
    3.9780    0.7998   18.5277 C   0  0  0  0  0  0  0  0  0  0  0  0
 20 21  1  0  0  0
 20 23  1  0  0  0
 20 24  1  0  0  0
 21 22  2  0  0  0
 21 14  1  0  0  0
 22 25  1  0  0  0
 14 15  1  0  0  0
 14 19  2  0  0  0
 15 16  2  0  0  0
 16 17  1  0  0  0
 17 18  2  0  0  0
 17 12  1  0  0  0
 18 19  1  0  0  0
 12 11  1  0  0  0
 12 13  1  0  0  0
 11  1  1  0  0  0
  1  2  2  0  0  0
  1  5  1  0  0  0
  2  3  1  0  0  0
  3  4  1  0  0  0
  3 10  2  0  0  0
  4  5  1  0  0  0
  4  7  2  0  0  0
  5  6  1  0  0  0
  7  8  1  0  0  0
  8  9  2  0  0  0
  9 10  1  0  0  0
  9 26  1  0  0  0
 26 27  1  0  0  0
 27 28  1  0  0  0
 27 31  1  0  0  0
 28 29  2  0  0  0
 28 36  1  0  0  0
 29 30  1  0  0  0
 30 31  1  0  0  0
 30 35  2  0  0  0
 31 32  2  0  0  0
 32 33  1  0  0  0
 33 34  2  0  0  0
 34 35  1  0  0  0
M  END
> <minimizedAffinity>
-9.23923

$$$$
