data/FXA/cocry_dataset/1ioe_XMA_LIG.pdb
 OpenBabel03092321123D

 38 43  0  0  0  0  0  0  0  0999 V2000
    5.6967    3.1939   20.4900 N   0  0  0  0  0  0  0  0  0  0  0  0
    4.6579    3.3733   21.5302 C   0  0  0  0  0  0  0  0  0  0  0  0
    4.8506    4.6518   22.3949 C   0  0  0  0  0  0  0  0  0  0  0  0
    4.7753    4.6504   23.6208 O   0  0  0  0  0  0  0  0  0  0  0  0
    5.1004    5.8245   21.6864 N   0  0  0  0  0  0  0  0  0  0  0  0
    6.1213    5.7192   20.6626 C   0  0  1  0  0  0  0  0  0  0  0  0
    6.7400    4.2613   20.6269 C   0  0  0  0  0  0  0  0  0  0  0  0
    5.4572    6.1130   19.4193 O   0  0  0  0  0  0  0  0  0  0  0  0
    4.0287    6.3486   19.6224 C   0  0  0  0  0  0  0  0  0  0  0  0
    3.9438    6.5114   21.1492 C   0  0  0  0  0  0  0  0  0  0  0  0
    3.5421    7.6009   18.8813 C   0  0  0  0  0  0  0  0  0  0  0  0
    3.5315    7.4635   17.3529 C   0  0  0  0  0  0  0  0  0  0  0  0
    2.7795    6.3027   16.8357 N   0  0  0  0  0  0  0  0  0  0  0  0
    2.7814    5.0840   17.6432 C   0  0  0  0  0  0  0  0  0  0  0  0
    3.0277    5.2633   19.1457 C   0  0  0  0  0  0  0  0  0  0  0  0
    2.8705    6.1304   15.4176 C   0  0  0  0  0  0  0  0  0  0  0  0
    3.2865    4.9434   14.7888 C   0  0  0  0  0  0  0  0  0  0  0  0
    3.4045    4.8754   13.3969 C   0  0  0  0  0  0  0  0  0  0  0  0
    3.1019    5.8846   12.5648 N   0  0  0  0  0  0  0  0  0  0  0  0
    2.6476    7.0047   13.1581 C   0  0  0  0  0  0  0  0  0  0  0  0
    2.5161    7.1627   14.5382 C   0  0  0  0  0  0  0  0  0  0  0  0
    5.6493    2.6865   18.8863 S   0  0  0  0  0  0  0  0  0  0  0  0
    5.9728    3.8727   18.1195 O   0  0  0  0  0  0  0  0  0  0  0  0
    4.3512    2.0865   18.6759 O   0  0  0  0  0  0  0  0  0  0  0  0
    8.0997    1.2792   18.8181 C   0  0  0  0  0  0  0  0  0  0  0  0
    6.8106    1.4696   18.3405 C   0  0  0  0  0  0  0  0  0  0  0  0
    6.3415    0.6763   17.2682 C   0  0  0  0  0  0  0  0  0  0  0  0
    7.1363   -0.3174   16.7100 C   0  0  0  0  0  0  0  0  0  0  0  0
    8.4182   -0.5377   17.1974 C   0  0  0  0  0  0  0  0  0  0  0  0
    8.9242    0.2737   18.2530 C   0  0  0  0  0  0  0  0  0  0  0  0
   10.2471    0.0496   18.6568 C   0  0  0  0  0  0  0  0  0  0  0  0
   11.0362   -0.9578   18.0794 C   0  0  0  0  0  0  0  0  0  0  0  0
   10.5127   -1.7604   17.0697 C   0  0  0  0  0  0  0  0  0  0  0  0
   11.4715   -3.0149   16.3844 Cl  0  0  0  0  0  0  0  0  0  0  0  0
    9.2160   -1.5474   16.6247 C   0  0  0  0  0  0  0  0  0  0  0  0
    7.4272    6.5530   20.9880 C   0  0  0  0  0  0  0  0  0  0  0  0
    7.9059    7.4842   20.0246 O   0  0  0  0  0  0  0  0  0  0  0  0
    8.9531    8.2967   20.5156 C   0  0  0  0  0  0  0  0  0  0  0  0
  1  2  1  0  0  0  0
  1  7  1  0  0  0  0
  2  3  1  0  0  0  0
  3  5  1  0  0  0  0
  3  4  2  0  0  0  0
  5  6  1  0  0  0  0
  5 10  1  0  0  0  0
  6  7  1  0  0  0  0
  6  8  1  0  0  0  0
  6 36  1  1  0  0  0
  8  9  1  0  0  0  0
  9 10  1  0  0  0  0
  9 11  1  0  0  0  0
  9 15  1  0  0  0  0
 11 12  1  0  0  0  0
 12 13  1  0  0  0  0
 13 14  1  0  0  0  0
 13 16  1  0  0  0  0
 14 15  1  0  0  0  0
 16 17  1  0  0  0  0
 16 21  2  0  0  0  0
 17 18  2  0  0  0  0
 18 19  1  0  0  0  0
 19 20  2  0  0  0  0
 20 21  1  0  0  0  0
 22 23  2  0  0  0  0
 22 24  2  0  0  0  0
 22  1  1  0  0  0  0
 25 26  1  0  0  0  0
 25 30  2  0  0  0  0
 26 27  2  0  0  0  0
 26 22  1  0  0  0  0
 27 28  1  0  0  0  0
 28 29  2  0  0  0  0
 29 30  1  0  0  0  0
 29 35  1  0  0  0  0
 30 31  1  0  0  0  0
 31 32  2  0  0  0  0
 32 33  1  0  0  0  0
 33 34  1  0  0  0  0
 33 35  2  0  0  0  0
 36 37  1  0  0  0  0
 37 38  1  0  0  0  0
M  END
>  <minimizedAffinity>
-8.87981

$$$$
