data/FXA/cocry_dataset/1ioe_XMA_LIG.pdb


 38 43  0  0  0  0  0  0  0  0999 V2000
    4.1815    2.5860   19.3545 N   0  0  0  0  0  0  0  0  0  0  0  0
    2.8654    2.9518   18.7823 C   0  0  0  0  0  0  0  0  0  0  0  0
    1.7259    3.0404   19.8372 C   0  0  0  0  0  0  0  0  0  0  0  0
    0.6230    2.5235   19.6787 O   0  0  0  0  0  0  0  0  0  0  0  0
    2.0258    3.7679   20.9863 N   0  0  0  0  0  0  0  0  0  0  0  0
    3.2960    3.4443   21.6053 C   0  0  0  0  0  0  0  0  0  0  0  0
    4.0328    2.2855   20.8153 C   0  0  0  0  0  0  0  0  0  0  0  0
    4.0375    4.7056   21.6373 O   0  0  0  0  0  0  0  0  0  0  0  0
    3.3116    5.7751   20.9543 C   0  0  0  0  0  0  0  0  0  0  0  0
    1.8841    5.2064   20.8933 C   0  0  0  0  0  0  0  0  0  0  0  0
    3.3725    7.0973   21.7305 C   0  0  0  0  0  0  0  0  0  0  0  0
    4.7614    7.7494   21.7549 C   0  0  0  0  0  0  0  0  0  0  0  0
    5.3721    7.9673   20.4283 N   0  0  0  0  0  0  0  0  0  0  0  0
    5.0830    6.9863   19.3836 C   0  0  0  0  0  0  0  0  0  0  0  0
    3.7793    6.1941   19.5356 C   0  0  0  0  0  0  0  0  0  0  0  0
    6.7093    8.4762   20.4753 C   0  0  0  0  0  0  0  0  0  0  0  0
    7.8591    7.6737   20.5812 C   0  0  0  0  0  0  0  0  0  0  0  0
    9.1282    8.2529   20.6806 C   0  0  0  0  0  0  0  0  0  0  0  0
    9.3582    9.5750   20.6420 N   0  0  0  0  0  0  0  0  0  0  0  0
    8.2659   10.3459   20.4824 C   0  0  0  0  0  0  0  0  0  0  0  0
    6.9640    9.8519   20.3925 C   0  0  0  0  0  0  0  0  0  0  0  0
    5.7526    3.1170   19.0688 S   0  0  0  0  0  0  0  0  0  0  0  0
    6.2013    3.6306   20.3473 O   0  0  0  0  0  0  0  0  0  0  0  0
    5.6858    4.0433   17.9611 O   0  0  0  0  0  0  0  0  0  0  0  0
    6.8645    0.9522   17.6311 C   0  0  0  0  0  0  0  0  0  0  0  0
    6.9829    1.9347   18.6042 C   0  0  0  0  0  0  0  0  0  0  0  0
    8.1651    2.0109   19.3759 C   0  0  0  0  0  0  0  0  0  0  0  0
    9.2261    1.1427   19.1502 C   0  0  0  0  0  0  0  0  0  0  0  0
    9.1321    0.1729   18.1602 C   0  0  0  0  0  0  0  0  0  0  0  0
    7.9365    0.0550   17.3951 C   0  0  0  0  0  0  0  0  0  0  0  0
    7.8747   -0.9847   16.4577 C   0  0  0  0  0  0  0  0  0  0  0  0
    8.9563   -1.8541   16.2448 C   0  0  0  0  0  0  0  0  0  0  0  0
   10.1275   -1.7029   16.9818 C   0  0  0  0  0  0  0  0  0  0  0  0
   11.4634   -2.7505   16.6978 Cl  0  0  0  0  0  0  0  0  0  0  0  0
   10.2132   -0.7024   17.9392 C   0  0  0  0  0  0  0  0  0  0  0  0
    3.1477    2.7477   23.0193 C   0  0  0  0  0  0  0  0  0  0  0  0
    3.1485    3.5587   24.1884 O   0  0  0  0  0  0  0  0  0  0  0  0
    1.8916    4.1501   24.4504 C   0  0  0  0  0  0  0  0  0  0  0  0
 25 26  1  0  0  0
 25 30  2  0  0  0
 26 27  2  0  0  0
 26 22  1  0  0  0
 27 28  1  0  0  0
 28 29  2  0  0  0
 29 30  1  0  0  0
 29 35  1  0  0  0
 30 31  1  0  0  0
 31 32  2  0  0  0
 32 33  1  0  0  0
 33 34  1  0  0  0
 33 35  2  0  0  0
 22 23  2  0  0  0
 22 24  2  0  0  0
 22  1  1  0  0  0
  1  2  1  0  0  0
  1  7  1  0  0  0
  2  3  1  0  0  0
  3  5  1  0  0  0
  3  4  2  0  0  0
  5  6  1  0  0  0
  5 10  1  0  0  0
  6  7  1  0  0  0
  6  8  1  0  0  0
  6 36  1  0  0  0
 36 37  1  0  0  0
 37 38  1  0  0  0
  8  9  1  0  0  0
  9 10  1  0  0  0
  9 11  1  0  0  0
  9 15  1  0  0  0
 11 12  1  0  0  0
 12 13  1  0  0  0
 13 14  1  0  0  0
 13 16  1  0  0  0
 16 17  1  0  0  0
 16 21  2  0  0  0
 17 18  2  0  0  0
 18 19  1  0  0  0
 19 20  2  0  0  0
 20 21  1  0  0  0
 14 15  1  0  0  0
M  END
> <minimizedAffinity>
-10.08778

$$$$
data/FXA/cocry_dataset/1ioe_XMA_LIG.pdb


 38 43  0  0  0  0  0  0  0  0999 V2000
    3.4451    3.7825   20.3994 N   0  0  0  0  0  0  0  0  0  0  0  0
    2.2055    4.5317   20.0905 C   0  0  0  0  0  0  0  0  0  0  0  0
    1.1627    4.5217   21.2445 C   0  0  0  0  0  0  0  0  0  0  0  0
   -0.0294    4.2833   21.0697 O   0  0  0  0  0  0  0  0  0  0  0  0
    1.6630    4.8216   22.5092 N   0  0  0  0  0  0  0  0  0  0  0  0
    2.8688    4.1069   22.8792 C   0  0  0  0  0  0  0  0  0  0  0  0
    3.3109    3.1086   21.7314 C   0  0  0  0  0  0  0  0  0  0  0  0
    3.8546    5.1480   23.1730 O   0  0  0  0  0  0  0  0  0  0  0  0
    3.3311    6.4825   22.8861 C   0  0  0  0  0  0  0  0  0  0  0  0
    1.8159    6.2269   22.8250 C   0  0  0  0  0  0  0  0  0  0  0  0
    3.7015    7.4922   23.9805 C   0  0  0  0  0  0  0  0  0  0  0  0
    5.1943    7.8437   24.0333 C   0  0  0  0  0  0  0  0  0  0  0  0
    5.7697    8.3168   22.7584 N   0  0  0  0  0  0  0  0  0  0  0  0
    5.2331    7.7467   21.5238 C   0  0  0  0  0  0  0  0  0  0  0  0
    3.8036    7.1972   21.5927 C   0  0  0  0  0  0  0  0  0  0  0  0
    7.1836    8.5367   22.7996 C   0  0  0  0  0  0  0  0  0  0  0  0
    7.9273    8.6912   23.9830 C   0  0  0  0  0  0  0  0  0  0  0  0
    9.2985    8.9618   23.9353 C   0  0  0  0  0  0  0  0  0  0  0  0
   10.0096    9.0524   22.8002 N   0  0  0  0  0  0  0  0  0  0  0  0
    9.3137    8.8477   21.6659 C   0  0  0  0  0  0  0  0  0  0  0  0
    7.9430    8.5901   21.6228 C   0  0  0  0  0  0  0  0  0  0  0  0
    5.0755    4.0757   20.1035 S   0  0  0  0  0  0  0  0  0  0  0  0
    5.6636    4.2225   21.4197 O   0  0  0  0  0  0  0  0  0  0  0  0
    5.1408    5.2103   19.2104 O   0  0  0  0  0  0  0  0  0  0  0  0
    7.3530    2.4749   19.6133 C   0  0  0  0  0  0  0  0  0  0  0  0
    6.0410    2.8187   19.3190 C   0  0  0  0  0  0  0  0  0  0  0  0
    5.3739    2.1707   18.2541 C   0  0  0  0  0  0  0  0  0  0  0  0
    5.9972    1.1679   17.5217 C   0  0  0  0  0  0  0  0  0  0  0  0
    7.3004    0.7941   17.8240 C   0  0  0  0  0  0  0  0  0  0  0  0
    8.0037    1.4584   18.8693 C   0  0  0  0  0  0  0  0  0  0  0  0
    9.3372    1.0850   19.0835 C   0  0  0  0  0  0  0  0  0  0  0  0
    9.9513    0.0708   18.3318 C   0  0  0  0  0  0  0  0  0  0  0  0
    9.2369   -0.5874   17.3347 C   0  0  0  0  0  0  0  0  0  0  0  0
    9.9820   -1.8515   16.4349 Cl  0  0  0  0  0  0  0  0  0  0  0  0
    7.9234   -0.2236   17.0756 C   0  0  0  0  0  0  0  0  0  0  0  0
    2.6511    3.0740   24.0591 C   0  0  0  0  0  0  0  0  0  0  0  0
    1.3294    2.8364   24.5294 O   0  0  0  0  0  0  0  0  0  0  0  0
    0.7454    1.6766   23.9711 C   0  0  0  0  0  0  0  0  0  0  0  0
 25 26  1  0  0  0
 25 30  2  0  0  0
 26 27  2  0  0  0
 26 22  1  0  0  0
 27 28  1  0  0  0
 28 29  2  0  0  0
 29 30  1  0  0  0
 29 35  1  0  0  0
 30 31  1  0  0  0
 31 32  2  0  0  0
 32 33  1  0  0  0
 33 34  1  0  0  0
 33 35  2  0  0  0
 22 23  2  0  0  0
 22 24  2  0  0  0
 22  1  1  0  0  0
  1  2  1  0  0  0
  1  7  1  0  0  0
  2  3  1  0  0  0
  3  5  1  0  0  0
  3  4  2  0  0  0
  5  6  1  0  0  0
  5 10  1  0  0  0
  6  7  1  0  0  0
  6  8  1  0  0  0
  6 36  1  0  0  0
 36 37  1  0  0  0
 37 38  1  0  0  0
  8  9  1  0  0  0
  9 10  1  0  0  0
  9 11  1  0  0  0
  9 15  1  0  0  0
 11 12  1  0  0  0
 12 13  1  0  0  0
 13 14  1  0  0  0
 13 16  1  0  0  0
 16 17  1  0  0  0
 16 21  2  0  0  0
 17 18  2  0  0  0
 18 19  1  0  0  0
 19 20  2  0  0  0
 20 21  1  0  0  0
 14 15  1  0  0  0
M  END
> <minimizedAffinity>
-9.82892

$$$$
data/FXA/cocry_dataset/1ioe_XMA_LIG.pdb


 38 43  0  0  0  0  0  0  0  0999 V2000
    5.6967    3.1939   20.4900 N   0  0  0  0  0  0  0  0  0  0  0  0
    4.6579    3.3733   21.5302 C   0  0  0  0  0  0  0  0  0  0  0  0
    4.8506    4.6518   22.3949 C   0  0  0  0  0  0  0  0  0  0  0  0
    4.7753    4.6504   23.6208 O   0  0  0  0  0  0  0  0  0  0  0  0
    5.1004    5.8245   21.6864 N   0  0  0  0  0  0  0  0  0  0  0  0
    6.1213    5.7192   20.6626 C   0  0  0  0  0  0  0  0  0  0  0  0
    6.7400    4.2613   20.6269 C   0  0  0  0  0  0  0  0  0  0  0  0
    5.4572    6.1130   19.4193 O   0  0  0  0  0  0  0  0  0  0  0  0
    4.0287    6.3486   19.6224 C   0  0  0  0  0  0  0  0  0  0  0  0
    3.9438    6.5114   21.1492 C   0  0  0  0  0  0  0  0  0  0  0  0
    3.5421    7.6009   18.8813 C   0  0  0  0  0  0  0  0  0  0  0  0
    3.5315    7.4635   17.3529 C   0  0  0  0  0  0  0  0  0  0  0  0
    2.7795    6.3027   16.8357 N   0  0  0  0  0  0  0  0  0  0  0  0
    2.7814    5.0840   17.6432 C   0  0  0  0  0  0  0  0  0  0  0  0
    3.0277    5.2633   19.1457 C   0  0  0  0  0  0  0  0  0  0  0  0
    2.8705    6.1304   15.4176 C   0  0  0  0  0  0  0  0  0  0  0  0
    3.2865    4.9434   14.7888 C   0  0  0  0  0  0  0  0  0  0  0  0
    3.4045    4.8754   13.3969 C   0  0  0  0  0  0  0  0  0  0  0  0
    3.1019    5.8846   12.5648 N   0  0  0  0  0  0  0  0  0  0  0  0
    2.6476    7.0047   13.1581 C   0  0  0  0  0  0  0  0  0  0  0  0
    2.5161    7.1627   14.5382 C   0  0  0  0  0  0  0  0  0  0  0  0
    5.6493    2.6865   18.8863 S   0  0  0  0  0  0  0  0  0  0  0  0
    5.9728    3.8727   18.1195 O   0  0  0  0  0  0  0  0  0  0  0  0
    4.3512    2.0865   18.6759 O   0  0  0  0  0  0  0  0  0  0  0  0
    8.0997    1.2792   18.8181 C   0  0  0  0  0  0  0  0  0  0  0  0
    6.8106    1.4696   18.3405 C   0  0  0  0  0  0  0  0  0  0  0  0
    6.3415    0.6763   17.2682 C   0  0  0  0  0  0  0  0  0  0  0  0
    7.1363   -0.3174   16.7100 C   0  0  0  0  0  0  0  0  0  0  0  0
    8.4182   -0.5377   17.1974 C   0  0  0  0  0  0  0  0  0  0  0  0
    8.9242    0.2737   18.2530 C   0  0  0  0  0  0  0  0  0  0  0  0
   10.2471    0.0496   18.6568 C   0  0  0  0  0  0  0  0  0  0  0  0
   11.0362   -0.9578   18.0794 C   0  0  0  0  0  0  0  0  0  0  0  0
   10.5127   -1.7604   17.0697 C   0  0  0  0  0  0  0  0  0  0  0  0
   11.4715   -3.0149   16.3844 Cl  0  0  0  0  0  0  0  0  0  0  0  0
    9.2160   -1.5474   16.6247 C   0  0  0  0  0  0  0  0  0  0  0  0
    7.4272    6.5530   20.9880 C   0  0  0  0  0  0  0  0  0  0  0  0
    7.9059    7.4842   20.0246 O   0  0  0  0  0  0  0  0  0  0  0  0
    8.9531    8.2967   20.5156 C   0  0  0  0  0  0  0  0  0  0  0  0
 25 26  1  0  0  0
 25 30  2  0  0  0
 26 27  2  0  0  0
 26 22  1  0  0  0
 27 28  1  0  0  0
 28 29  2  0  0  0
 29 30  1  0  0  0
 29 35  1  0  0  0
 30 31  1  0  0  0
 31 32  2  0  0  0
 32 33  1  0  0  0
 33 34  1  0  0  0
 33 35  2  0  0  0
 22 23  2  0  0  0
 22 24  2  0  0  0
 22  1  1  0  0  0
  1  2  1  0  0  0
  1  7  1  0  0  0
  2  3  1  0  0  0
  3  5  1  0  0  0
  3  4  2  0  0  0
  5  6  1  0  0  0
  5 10  1  0  0  0
  6  7  1  0  0  0
  6  8  1  0  0  0
  6 36  1  0  0  0
 36 37  1  0  0  0
 37 38  1  0  0  0
  8  9  1  0  0  0
  9 10  1  0  0  0
  9 11  1  0  0  0
  9 15  1  0  0  0
 11 12  1  0  0  0
 12 13  1  0  0  0
 13 14  1  0  0  0
 13 16  1  0  0  0
 16 17  1  0  0  0
 16 21  2  0  0  0
 17 18  2  0  0  0
 18 19  1  0  0  0
 19 20  2  0  0  0
 20 21  1  0  0  0
 14 15  1  0  0  0
M  END
> <minimizedAffinity>
-8.87981

$$$$
