# created with PyMOL 2.5.0
@<TRIPOS>MOLECULE
data/FXA/cocry_dataset/1iqe_XMB_LIG.pdb
75 79 1                 
SMALL
USER_CHARGES
@<TRIPOS>ATOM
1	 H34	9.219	6.257	27.650	 H	1	UNK0	0.000	
2	 H32	12.581	8.828	25.036	 H	1	UNK0	0.000	
3	 H17	7.115	3.693	19.593	 H	1	UNK0	0.000	
4	 H33	11.629	6.110	28.233	 H	1	UNK0	0.000	
5	 H01	3.305	5.703	21.880	 H	1	UNK0	0.000	
6	 H16	8.560	2.787	20.099	 H	1	UNK0	0.000	
7	 H04	8.869	6.954	21.185	 H	1	UNK0	0.000	
8	 H03	6.736	5.776	20.973	 H	1	UNK0	0.000	
9	 H02	7.318	6.324	19.369	 H	1	UNK0	0.000	
10	 H14	7.342	1.797	21.954	 H	1	UNK0	0.000	
11	 H08	4.782	8.896	19.016	 H	1	UNK0	0.000	
12	 H07	6.308	9.998	20.545	 H	1	UNK0	0.000	
13	 H18	5.379	0.470	18.665	 H	1	UNK0	0.000	
14	 H06	6.782	10.332	18.857	 H	1	UNK0	0.000	
15	 H13	5.072	2.336	22.515	 H	1	UNK0	0.000	
16	 H12	3.600	3.743	21.366	 H	1	UNK0	0.000	
17	 H27	3.787	7.703	23.302	 H	1	UNK0	0.000	
18	 H11	4.733	3.942	19.996	 H	1	UNK0	0.000	
19	 H10	6.012	5.312	21.158	 H	1	UNK0	0.000	
20	 H05	7.568	7.892	21.952	 H	1	UNK0	0.000	
21	 H15	7.181	3.586	22.027	 H	1	UNK0	0.000	
22	 H26	3.861	6.042	24.017	 H	1	UNK0	0.000	
23	 H21	5.329	0.419	21.078	 H	1	UNK0	0.000	
24	 H20	3.899	1.361	20.497	 H	1	UNK0	0.000	
25	 H19	5.120	2.227	18.642	 H	1	UNK0	0.000	
26	 H22	6.458	0.052	17.190	 H	1	UNK0	0.000	
27	 H25	9.652	1.336	19.766	 H	1	UNK0	0.000	
28	 H24	11.182	-0.051	18.452	 H	1	UNK0	0.000	
29	 H23	8.085	-1.278	15.939	 H	1	UNK0	0.000	
30	 H09	6.154	8.070	18.201	 H	1	UNK0	0.000	
31	 H30	10.799	9.741	23.629	 H	1	UNK0	0.000	
32	 H29	7.421	7.153	26.213	 H	1	UNK0	0.000	
33	 H28	5.797	6.508	24.716	 H	1	UNK0	0.000	
34	 H31	8.394	9.898	23.033	 H	1	UNK0	0.000	
35	   C	4.308	6.128	21.933	C.3	1	UNK0	0.000	
36	   C	4.460	7.172	20.784	C.2	1	UNK0	0.000	
37	   O	3.470	7.854	20.485	O.2	1	UNK0	0.000	
38	   N	5.672	7.363	20.117	N.pl3	1	UNK0	0.000	
39	   C	6.928	6.640	20.337	C.3	1	UNK0	0.000	
40	   C	7.959	7.527	21.003	C.3	1	UNK0	0.000	
41	   S	8.325	8.900	19.945	S.o2	1	UNK0	0.000	
42	   O	9.075	9.873	20.715	O.2	1	UNK0	0.000	
43	   O	8.861	8.375	18.702	O.2	1	UNK0	0.000	
44	   C	6.707	9.564	19.628	C.3	1	UNK0	0.000	
45	   C	5.775	8.465	19.144	C.3	1	UNK0	0.000	
46	   N	5.243	4.990	21.729	N.3	1	UNK0	0.000	
47	   C	4.648	3.821	21.076	C.3	1	UNK0	0.000	
48	   C	5.384	2.530	21.489	C.3	1	UNK0	0.000	
49	   C	6.914	2.681	21.482	C.3	1	UNK0	0.000	
50	   C	7.470	2.776	20.063	C.3	1	UNK0	0.000	
51	   N	7.018	1.619	19.286	N.pl3	1	UNK0	0.000	
52	   C	5.576	1.404	19.191	C.3	1	UNK0	0.000	
53	   C	4.984	1.336	20.601	C.3	1	UNK0	0.000	
54	   C	7.912	0.823	18.590	C.2	1	UNK0	0.000	
55	   C	7.505	0.057	17.494	C.2	1	UNK0	0.000	
56	   C	8.435	-0.698	16.792	C.2	1	UNK0	0.000	
57	   N	9.744	-0.755	17.104	N.2	1	UNK0	0.000	
58	   C	10.130	-0.023	18.166	C.2	1	UNK0	0.000	
59	   C	9.270	0.765	18.920	C.2	1	UNK0	0.000	
60	   C	4.327	6.757	23.339	C.3	1	UNK0	0.000	
61	   N	5.688	7.015	23.849	N.3	1	UNK0	0.000	
62	   S	6.062	8.647	24.145	S.o2	1	UNK0	0.000	
63	   O	5.962	9.365	22.896	O.2	1	UNK0	0.000	
64	   O	5.308	9.030	25.318	O.2	1	UNK0	0.000	
65	   C	7.772	8.551	24.603	C.2	1	UNK0	0.000	
66	   C	8.166	7.725	25.661	C.2	1	UNK0	0.000	
67	   C	9.522	7.634	26.010	C.2	1	UNK0	0.000	
68	   C	10.481	8.369	25.269	C.2	1	UNK0	0.000	
69	   C	10.062	9.179	24.201	C.2	1	UNK0	0.000	
70	   C	8.712	9.270	23.865	C.2	1	UNK0	0.000	
71	   C	11.838	8.269	25.605	C.2	1	UNK0	0.000	
72	   C	12.243	7.457	26.663	C.2	1	UNK0	0.000	
73	   C	11.306	6.737	27.403	C.2	1	UNK0	0.000	
74	   C	9.951	6.824	27.074	C.2	1	UNK0	0.000	
75	  Cl	13.912	7.351	27.063	Cl	1	UNK0	0.000	
@<TRIPOS>BOND
1 5 35 1
2 35 36 1
3 35 46 1
4 35 60 1
5 36 37 2
6 36 38 1
7 38 39 1
8 38 45 1
9 8 39 1
10 9 39 1
11 39 40 1
12 7 40 1
13 20 40 1
14 40 41 1
15 41 42 2
16 41 43 2
17 41 44 1
18 12 44 1
19 14 44 1
20 44 45 1
21 11 45 1
22 30 45 1
23 19 46 1
24 46 47 1
25 16 47 1
26 18 47 1
27 47 48 1
28 15 48 1
29 48 49 1
30 48 53 1
31 10 49 1
32 21 49 1
33 49 50 1
34 3 50 1
35 6 50 1
36 50 51 1
37 51 52 1
38 51 54 1
39 13 52 1
40 25 52 1
41 52 53 1
42 23 53 1
43 24 53 1
44 54 55 1
45 54 59 2
46 26 55 1
47 55 56 2
48 29 56 1
49 56 57 1
50 57 58 2
51 28 58 1
52 58 59 1
53 27 59 1
54 17 60 1
55 22 60 1
56 60 61 1
57 33 61 1
58 61 62 1
59 62 63 2
60 62 64 2
61 62 65 1
62 65 66 1
63 65 70 2
64 32 66 1
65 66 67 2
66 67 68 1
67 67 74 1
68 68 69 2
69 68 71 1
70 31 69 1
71 69 70 1
72 34 70 1
73 2 71 1
74 71 72 2
75 72 73 1
76 72 75 1
77 4 73 1
78 73 74 2
79 1 74 1
@<TRIPOS>SUBSTRUCTURE
1	UNK0	1	GROUP	1 ****	UNK
