# created with PyMOL 2.5.0
@<TRIPOS>MOLECULE
data/FXA/cocry_dataset/1iqe_XMB_LIG.pdb
75 79 1                 
SMALL
USER_CHARGES
@<TRIPOS>ATOM
1	   C	4.308	6.128	21.933	C.3	1	UNK0	0.000	
2	   C	4.460	7.172	20.784	C.2	1	UNK0	0.000	
3	   O	3.470	7.854	20.485	O.2	1	UNK0	0.000	
4	   N	5.672	7.363	20.117	N.pl3	1	UNK0	0.000	
5	   C	6.928	6.640	20.337	C.3	1	UNK0	0.000	
6	   C	7.959	7.527	21.003	C.3	1	UNK0	0.000	
7	   S	8.325	8.900	19.945	S.o2	1	UNK0	0.000	
8	   O	9.075	9.873	20.715	O.2	1	UNK0	0.000	
9	   O	8.861	8.375	18.702	O.2	1	UNK0	0.000	
10	   C	6.707	9.564	19.628	C.3	1	UNK0	0.000	
11	   C	5.775	8.465	19.144	C.3	1	UNK0	0.000	
12	   N	5.243	4.990	21.729	N.3	1	UNK0	0.000	
13	   C	4.648	3.821	21.076	C.3	1	UNK0	0.000	
14	   C	5.384	2.530	21.489	C.3	1	UNK0	0.000	
15	   C	6.914	2.681	21.482	C.3	1	UNK0	0.000	
16	   C	7.470	2.776	20.063	C.3	1	UNK0	0.000	
17	   N	7.018	1.619	19.286	N.pl3	1	UNK0	0.000	
18	   C	5.576	1.404	19.191	C.3	1	UNK0	0.000	
19	   C	4.984	1.336	20.601	C.3	1	UNK0	0.000	
20	   C	7.912	0.823	18.590	C.2	1	UNK0	0.000	
21	   C	7.505	0.057	17.494	C.2	1	UNK0	0.000	
22	   C	8.435	-0.698	16.792	C.2	1	UNK0	0.000	
23	   N	9.744	-0.755	17.104	N.2	1	UNK0	0.000	
24	   C	10.130	-0.023	18.166	C.2	1	UNK0	0.000	
25	   C	9.270	0.765	18.920	C.2	1	UNK0	0.000	
26	   C	4.327	6.757	23.339	C.3	1	UNK0	0.000	
27	   N	5.688	7.015	23.849	N.3	1	UNK0	0.000	
28	   S	6.062	8.647	24.145	S.o2	1	UNK0	0.000	
29	   O	5.962	9.365	22.896	O.2	1	UNK0	0.000	
30	   O	5.308	9.030	25.318	O.2	1	UNK0	0.000	
31	   C	7.772	8.551	24.603	C.2	1	UNK0	0.000	
32	   C	8.166	7.725	25.661	C.2	1	UNK0	0.000	
33	   C	9.522	7.634	26.010	C.2	1	UNK0	0.000	
34	   C	10.481	8.369	25.269	C.2	1	UNK0	0.000	
35	   C	10.062	9.179	24.201	C.2	1	UNK0	0.000	
36	   C	8.712	9.270	23.865	C.2	1	UNK0	0.000	
37	   C	11.838	8.269	25.605	C.2	1	UNK0	0.000	
38	   C	12.243	7.457	26.663	C.2	1	UNK0	0.000	
39	   C	11.306	6.737	27.403	C.2	1	UNK0	0.000	
40	   C	9.951	6.824	27.074	C.2	1	UNK0	0.000	
41	  Cl	13.912	7.351	27.063	Cl	1	UNK0	0.000	
42	 H01	3.305	5.703	21.880	 H	1	UNK0	0.000	
43	 H02	7.318	6.324	19.369	 H	1	UNK0	0.000	
44	 H03	6.736	5.776	20.973	 H	1	UNK0	0.000	
45	 H04	8.869	6.954	21.185	 H	1	UNK0	0.000	
46	 H05	7.568	7.892	21.952	 H	1	UNK0	0.000	
47	 H06	6.782	10.332	18.857	 H	1	UNK0	0.000	
48	 H07	6.308	9.998	20.545	 H	1	UNK0	0.000	
49	 H08	4.782	8.896	19.016	 H	1	UNK0	0.000	
50	 H09	6.154	8.070	18.201	 H	1	UNK0	0.000	
51	 H10	6.012	5.312	21.158	 H	1	UNK0	0.000	
52	 H11	4.733	3.942	19.996	 H	1	UNK0	0.000	
53	 H12	3.600	3.743	21.366	 H	1	UNK0	0.000	
54	 H13	5.072	2.336	22.515	 H	1	UNK0	0.000	
55	 H14	7.342	1.797	21.954	 H	1	UNK0	0.000	
56	 H15	7.181	3.586	22.027	 H	1	UNK0	0.000	
57	 H16	8.560	2.787	20.099	 H	1	UNK0	0.000	
58	 H17	7.115	3.693	19.593	 H	1	UNK0	0.000	
59	 H18	5.379	0.470	18.665	 H	1	UNK0	0.000	
60	 H19	5.120	2.227	18.642	 H	1	UNK0	0.000	
61	 H20	3.899	1.361	20.497	 H	1	UNK0	0.000	
62	 H21	5.329	0.419	21.078	 H	1	UNK0	0.000	
63	 H22	6.458	0.052	17.190	 H	1	UNK0	0.000	
64	 H23	8.085	-1.278	15.939	 H	1	UNK0	0.000	
65	 H24	11.182	-0.051	18.452	 H	1	UNK0	0.000	
66	 H25	9.652	1.336	19.766	 H	1	UNK0	0.000	
67	 H26	3.861	6.042	24.017	 H	1	UNK0	0.000	
68	 H27	3.787	7.703	23.302	 H	1	UNK0	0.000	
69	 H28	5.797	6.508	24.716	 H	1	UNK0	0.000	
70	 H29	7.421	7.153	26.213	 H	1	UNK0	0.000	
71	 H30	10.799	9.741	23.629	 H	1	UNK0	0.000	
72	 H31	8.394	9.898	23.033	 H	1	UNK0	0.000	
73	 H32	12.581	8.828	25.036	 H	1	UNK0	0.000	
74	 H33	11.629	6.110	28.233	 H	1	UNK0	0.000	
75	 H34	9.219	6.257	27.650	 H	1	UNK0	0.000	
@<TRIPOS>BOND
1 2 3 2
2 2 4 1
3 4 5 1
4 4 11 1
5 5 6 1
6 6 7 1
7 7 8 2
8 7 9 2
9 7 10 1
10 10 11 1
11 1 12 1
12 1 26 1
13 1 2 1
14 26 27 1
15 27 28 1
16 28 29 2
17 28 30 2
18 28 31 1
19 31 32 1
20 31 36 2
21 32 33 2
22 33 34 1
23 33 40 1
24 34 35 2
25 34 37 1
26 35 36 1
27 37 38 2
28 38 39 1
29 38 41 1
30 39 40 2
31 12 13 1
32 13 14 1
33 14 15 1
34 14 19 1
35 15 16 1
36 16 17 1
37 17 20 1
38 17 18 1
39 20 21 1
40 20 25 2
41 21 22 2
42 22 23 1
43 23 24 2
44 24 25 1
45 18 19 1
46 1 42 1
47 5 43 1
48 5 44 1
49 6 45 1
50 6 46 1
51 10 47 1
52 10 48 1
53 11 49 1
54 11 50 1
55 12 51 1
56 13 52 1
57 13 53 1
58 14 54 1
59 15 55 1
60 15 56 1
61 16 57 1
62 16 58 1
63 18 59 1
64 18 60 1
65 19 61 1
66 19 62 1
67 21 63 1
68 22 64 1
69 24 65 1
70 25 66 1
71 26 67 1
72 26 68 1
73 27 69 1
74 32 70 1
75 35 71 1
76 36 72 1
77 37 73 1
78 39 74 1
79 40 75 1
@<TRIPOS>SUBSTRUCTURE
1	UNK0	1	GROUP	1 ****	UNK
