data/FXA/cocry_dataset/1iqe_XMB_LIG.pdb


 43 47  0  0  0  0  0  0  0  0999 V2000
    4.3077    6.1276   21.9330 C   0  0  0  0  0  0  0  0  0  0  0  0
    4.4602    7.1723   20.7844 C   0  0  0  0  0  0  0  0  0  0  0  0
    3.4700    7.8539   20.4847 O   0  0  0  0  0  0  0  0  0  0  0  0
    5.6721    7.3628   20.1173 N   0  0  0  0  0  0  0  0  0  0  0  0
    6.9279    6.6403   20.3366 C   0  0  0  0  0  0  0  0  0  0  0  0
    7.9595    7.5265   21.0032 C   0  0  0  0  0  0  0  0  0  0  0  0
    8.3253    8.8997   19.9448 S   0  0  0  0  0  0  0  0  0  0  0  0
    9.0746    9.8728   20.7147 O   0  0  0  0  0  0  0  0  0  0  0  0
    8.8612    8.3755   18.7022 O   0  0  0  0  0  0  0  0  0  0  0  0
    6.7069    9.5643   19.6275 C   0  0  0  0  0  0  0  0  0  0  0  0
    5.7748    8.4650   19.1436 C   0  0  0  0  0  0  0  0  0  0  0  0
    5.2426    4.9903   21.7285 N   0  0  0  0  0  0  0  0  0  0  0  0
    5.6899    4.7194   22.5999 H   0  0  0  0  0  0  0  0  0  0  0  0
    4.6475    3.8207   21.0760 C   0  0  0  0  0  0  0  0  0  0  0  0
    5.3841    2.5301   21.4885 C   0  0  0  0  0  0  0  0  0  0  0  0
    6.9136    2.6812   21.4816 C   0  0  0  0  0  0  0  0  0  0  0  0
    7.4703    2.7758   20.0633 C   0  0  0  0  0  0  0  0  0  0  0  0
    7.0180    1.6189   19.2859 N   0  0  0  0  0  0  0  0  0  0  0  0
    5.5763    1.4040   19.1906 C   0  0  0  0  0  0  0  0  0  0  0  0
    4.9841    1.3362   20.6010 C   0  0  0  0  0  0  0  0  0  0  0  0
    7.9124    0.8234   18.5900 C   0  0  0  0  0  0  0  0  0  0  0  0
    7.5052    0.0568   17.4937 C   0  0  0  0  0  0  0  0  0  0  0  0
    8.4352   -0.6977   16.7923 C   0  0  0  0  0  0  0  0  0  0  0  0
    9.7440   -0.7554   17.1036 N   0  0  0  0  0  0  0  0  0  0  0  0
   10.1304   -0.0232   18.1660 C   0  0  0  0  0  0  0  0  0  0  0  0
    9.2700    0.7648   18.9196 C   0  0  0  0  0  0  0  0  0  0  0  0
    4.3275    6.7570   23.3390 C   0  0  0  0  0  0  0  0  0  0  0  0
    5.6875    7.0149   23.8492 N   0  0  0  0  0  0  0  0  0  0  0  0
    6.4340    6.5591   23.3156 H   0  0  0  0  0  0  0  0  0  0  0  0
    6.0617    8.6467   24.1454 S   0  0  0  0  0  0  0  0  0  0  0  0
    5.9615    9.3648   22.8955 O   0  0  0  0  0  0  0  0  0  0  0  0
    5.3085    9.0298   25.3182 O   0  0  0  0  0  0  0  0  0  0  0  0
    7.7720    8.5511   24.6033 C   0  0  0  0  0  0  0  0  0  0  0  0
    8.1660    7.7250   25.6609 C   0  0  0  0  0  0  0  0  0  0  0  0
    9.5221    7.6336   26.0102 C   0  0  0  0  0  0  0  0  0  0  0  0
   10.4811    8.3693   25.2687 C   0  0  0  0  0  0  0  0  0  0  0  0
   10.0617    9.1785   24.2014 C   0  0  0  0  0  0  0  0  0  0  0  0
    8.7119    9.2700   23.8651 C   0  0  0  0  0  0  0  0  0  0  0  0
   11.8384    8.2687   25.6047 C   0  0  0  0  0  0  0  0  0  0  0  0
   12.2430    7.4566   26.6631 C   0  0  0  0  0  0  0  0  0  0  0  0
   11.3057    6.7371   27.4026 C   0  0  0  0  0  0  0  0  0  0  0  0
    9.9511    6.8239   27.0741 C   0  0  0  0  0  0  0  0  0  0  0  0
   13.9123    7.3508   27.0626 Cl  0  0  0  0  0  0  0  0  0  0  0  0
  2  3  2  0  0  0
  2  4  1  0  0  0
  4  5  1  0  0  0
  4 11  1  0  0  0
  5  6  1  0  0  0
  6  7  1  0  0  0
  7  8  2  0  0  0
  7  9  2  0  0  0
  7 10  1  0  0  0
 10 11  1  0  0  0
  1 12  1  0  0  0
  1 27  1  0  0  0
  1  2  1  0  0  0
 27 28  1  0  0  0
 28 30  1  0  0  0
 28 29  1  0  0  0
 30 31  2  0  0  0
 30 32  2  0  0  0
 30 33  1  0  0  0
 33 34  1  0  0  0
 33 38  2  0  0  0
 34 35  2  0  0  0
 35 36  1  0  0  0
 35 42  1  0  0  0
 36 37  2  0  0  0
 36 39  1  0  0  0
 37 38  1  0  0  0
 39 40  2  0  0  0
 40 41  1  0  0  0
 40 43  1  0  0  0
 41 42  2  0  0  0
 12 14  1  0  0  0
 12 13  1  0  0  0
 14 15  1  0  0  0
 15 16  1  0  0  0
 15 20  1  0  0  0
 16 17  1  0  0  0
 17 18  1  0  0  0
 18 21  1  0  0  0
 18 19  1  0  0  0
 21 22  1  0  0  0
 21 26  2  0  0  0
 22 23  2  0  0  0
 23 24  1  0  0  0
 24 25  2  0  0  0
 25 26  1  0  0  0
 19 20  1  0  0  0
M  END
> <minimizedAffinity>
-12.47180

$$$$
data/FXA/cocry_dataset/1iqe_XMB_LIG.pdb


 43 47  0  0  0  0  0  0  0  0999 V2000
    4.6559    7.7375   20.2117 C   0  0  0  0  0  0  0  0  0  0  0  0
    5.3652    7.5690   21.5910 C   0  0  0  0  0  0  0  0  0  0  0  0
    6.6039    7.5516   21.6081 O   0  0  0  0  0  0  0  0  0  0  0  0
    4.6446    7.4610   22.7823 N   0  0  0  0  0  0  0  0  0  0  0  0
    3.1877    7.4521   22.9393 C   0  0  0  0  0  0  0  0  0  0  0  0
    2.6987    8.7356   23.5778 C   0  0  0  0  0  0  0  0  0  0  0  0
    3.3976    8.8880   25.1988 S   0  0  0  0  0  0  0  0  0  0  0  0
    3.1603   10.2400   25.6647 O   0  0  0  0  0  0  0  0  0  0  0  0
    2.9544    7.7515   25.9849 O   0  0  0  0  0  0  0  0  0  0  0  0
    5.1358    8.7066   24.8714 C   0  0  0  0  0  0  0  0  0  0  0  0
    5.3868    7.4481   24.0560 C   0  0  0  0  0  0  0  0  0  0  0  0
    4.9389    9.0811   19.6425 N   0  0  0  0  0  0  0  0  0  0  0  0
    5.9359    9.2779   19.6399 H   0  0  0  0  0  0  0  0  0  0  0  0
    4.3702    9.3122   18.3117 C   0  0  0  0  0  0  0  0  0  0  0  0
    5.2439   10.2954   17.5065 C   0  0  0  0  0  0  0  0  0  0  0  0
    4.9668   10.2488   15.9955 C   0  0  0  0  0  0  0  0  0  0  0  0
    5.4884    8.9626   15.3600 C   0  0  0  0  0  0  0  0  0  0  0  0
    6.9115    8.8083   15.6736 N   0  0  0  0  0  0  0  0  0  0  0  0
    7.2839    8.7962   17.0860 C   0  0  0  0  0  0  0  0  0  0  0  0
    6.7458   10.0622   17.7584 C   0  0  0  0  0  0  0  0  0  0  0  0
    7.8488    8.5836   14.6796 C   0  0  0  0  0  0  0  0  0  0  0  0
    8.5675    7.3860   14.6134 C   0  0  0  0  0  0  0  0  0  0  0  0
    9.4699    7.1757   13.5801 C   0  0  0  0  0  0  0  0  0  0  0  0
    9.7199    8.0725   12.6074 N   0  0  0  0  0  0  0  0  0  0  0  0
    9.0328    9.2287   12.6801 C   0  0  0  0  0  0  0  0  0  0  0  0
    8.1069    9.5198   13.6735 C   0  0  0  0  0  0  0  0  0  0  0  0
    4.8865    6.5512   19.2562 C   0  0  0  0  0  0  0  0  0  0  0  0
    5.9471    5.6301   19.7069 N   0  0  0  0  0  0  0  0  0  0  0  0
    6.7042    6.0793   20.2309 H   0  0  0  0  0  0  0  0  0  0  0  0
    5.4094    4.2256   20.4999 S   0  0  0  0  0  0  0  0  0  0  0  0
    6.0457    4.1697   21.7960 O   0  0  0  0  0  0  0  0  0  0  0  0
    3.9726    4.1955   20.3435 O   0  0  0  0  0  0  0  0  0  0  0  0
    6.0955    2.9466   19.4812 C   0  0  0  0  0  0  0  0  0  0  0  0
    7.4108    2.5192   19.6894 C   0  0  0  0  0  0  0  0  0  0  0  0
    7.9472    1.4928   18.8968 C   0  0  0  0  0  0  0  0  0  0  0  0
    7.1365    0.8871   17.9035 C   0  0  0  0  0  0  0  0  0  0  0  0
    5.8145    1.3231   17.7254 C   0  0  0  0  0  0  0  0  0  0  0  0
    5.2910    2.3484   18.5118 C   0  0  0  0  0  0  0  0  0  0  0  0
    7.6638   -0.1490   17.1200 C   0  0  0  0  0  0  0  0  0  0  0  0
    8.9765   -0.5774   17.3109 C   0  0  0  0  0  0  0  0  0  0  0  0
    9.7828    0.0188   18.2791 C   0  0  0  0  0  0  0  0  0  0  0  0
    9.2675    1.0478   19.0704 C   0  0  0  0  0  0  0  0  0  0  0  0
    9.6061   -1.8464   16.3358 Cl  0  0  0  0  0  0  0  0  0  0  0  0
  2  3  2  0  0  0
  2  4  1  0  0  0
  4  5  1  0  0  0
  4 11  1  0  0  0
  5  6  1  0  0  0
  6  7  1  0  0  0
  7  8  2  0  0  0
  7  9  2  0  0  0
  7 10  1  0  0  0
 10 11  1  0  0  0
  1 12  1  0  0  0
  1 27  1  0  0  0
  1  2  1  0  0  0
 27 28  1  0  0  0
 28 30  1  0  0  0
 28 29  1  0  0  0
 30 31  2  0  0  0
 30 32  2  0  0  0
 30 33  1  0  0  0
 33 34  1  0  0  0
 33 38  2  0  0  0
 34 35  2  0  0  0
 35 36  1  0  0  0
 35 42  1  0  0  0
 36 37  2  0  0  0
 36 39  1  0  0  0
 37 38  1  0  0  0
 39 40  2  0  0  0
 40 41  1  0  0  0
 40 43  1  0  0  0
 41 42  2  0  0  0
 12 14  1  0  0  0
 12 13  1  0  0  0
 14 15  1  0  0  0
 15 16  1  0  0  0
 15 20  1  0  0  0
 16 17  1  0  0  0
 17 18  1  0  0  0
 18 21  1  0  0  0
 18 19  1  0  0  0
 21 22  1  0  0  0
 21 26  2  0  0  0
 22 23  2  0  0  0
 23 24  1  0  0  0
 24 25  2  0  0  0
 25 26  1  0  0  0
 19 20  1  0  0  0
M  END
> <minimizedAffinity>
-12.10063

$$$$
data/FXA/cocry_dataset/1iqe_XMB_LIG.pdb


 43 47  0  0  0  0  0  0  0  0999 V2000
    4.8410    6.7188   19.9170 C   0  0  0  0  0  0  0  0  0  0  0  0
    6.2620    7.1310   20.4118 C   0  0  0  0  0  0  0  0  0  0  0  0
    7.0406    7.6315   19.5883 O   0  0  0  0  0  0  0  0  0  0  0  0
    6.6553    6.9688   21.7419 N   0  0  0  0  0  0  0  0  0  0  0  0
    5.8695    6.3885   22.8342 C   0  0  0  0  0  0  0  0  0  0  0  0
    5.4399    7.4518   23.8235 C   0  0  0  0  0  0  0  0  0  0  0  0
    6.8765    8.1922   24.5499 S   0  0  0  0  0  0  0  0  0  0  0  0
    6.4576    9.3871   25.2557 O   0  0  0  0  0  0  0  0  0  0  0  0
    7.6144    7.1512   25.2411 O   0  0  0  0  0  0  0  0  0  0  0  0
    7.8040    8.6864   23.1157 C   0  0  0  0  0  0  0  0  0  0  0  0
    7.9596    7.5124   22.1623 C   0  0  0  0  0  0  0  0  0  0  0  0
    4.3415    7.6873   18.9061 N   0  0  0  0  0  0  0  0  0  0  0  0
    5.0306    8.4095   18.7153 H   0  0  0  0  0  0  0  0  0  0  0  0
    3.8800    7.0798   17.6548 C   0  0  0  0  0  0  0  0  0  0  0  0
    4.0046    8.0762   16.4843 C   0  0  0  0  0  0  0  0  0  0  0  0
    4.1859    7.3863   15.1229 C   0  0  0  0  0  0  0  0  0  0  0  0
    5.5679    6.7529   14.9847 C   0  0  0  0  0  0  0  0  0  0  0  0
    6.5946    7.7668   15.2401 N   0  0  0  0  0  0  0  0  0  0  0  0
    6.5421    8.4574   16.5262 C   0  0  0  0  0  0  0  0  0  0  0  0
    5.1539    9.0776   16.7072 C   0  0  0  0  0  0  0  0  0  0  0  0
    7.6270    7.9893   14.3447 C   0  0  0  0  0  0  0  0  0  0  0  0
    7.6754    9.1468   13.5617 C   0  0  0  0  0  0  0  0  0  0  0  0
    8.7458    9.3588   12.7041 C   0  0  0  0  0  0  0  0  0  0  0  0
    9.7727    8.5003   12.5582 N   0  0  0  0  0  0  0  0  0  0  0  0
    9.7175    7.3820   13.3069 C   0  0  0  0  0  0  0  0  0  0  0  0
    8.6895    7.0927   14.1949 C   0  0  0  0  0  0  0  0  0  0  0  0
    4.7387    5.2340   19.5192 C   0  0  0  0  0  0  0  0  0  0  0  0
    6.0421    4.6165   19.2094 N   0  0  0  0  0  0  0  0  0  0  0  0
    6.7885    5.2855   18.9972 H   0  0  0  0  0  0  0  0  0  0  0  0
    6.5768    3.4403   20.3145 S   0  0  0  0  0  0  0  0  0  0  0  0
    7.7392    3.9605   20.9972 O   0  0  0  0  0  0  0  0  0  0  0  0
    5.4025    2.9873   21.0256 O   0  0  0  0  0  0  0  0  0  0  0  0
    7.0970    2.1344   19.2337 C   0  0  0  0  0  0  0  0  0  0  0  0
    8.4132    1.6647   19.2902 C   0  0  0  0  0  0  0  0  0  0  0  0
    8.8195    0.6174   18.4492 C   0  0  0  0  0  0  0  0  0  0  0  0
    7.8788    0.0339   17.5630 C   0  0  0  0  0  0  0  0  0  0  0  0
    6.5597    0.5126   17.5370 C   0  0  0  0  0  0  0  0  0  0  0  0
    6.1654    1.5584   18.3703 C   0  0  0  0  0  0  0  0  0  0  0  0
    8.2768   -1.0228   16.7321 C   0  0  0  0  0  0  0  0  0  0  0  0
    9.5883   -1.4935   16.7717 C   0  0  0  0  0  0  0  0  0  0  0  0
   10.5214   -0.9196   17.6337 C   0  0  0  0  0  0  0  0  0  0  0  0
   10.1360    0.1297   18.4709 C   0  0  0  0  0  0  0  0  0  0  0  0
   10.0579   -2.7873   15.7408 Cl  0  0  0  0  0  0  0  0  0  0  0  0
  2  3  2  0  0  0
  2  4  1  0  0  0
  4  5  1  0  0  0
  4 11  1  0  0  0
  5  6  1  0  0  0
  6  7  1  0  0  0
  7  8  2  0  0  0
  7  9  2  0  0  0
  7 10  1  0  0  0
 10 11  1  0  0  0
  1 12  1  0  0  0
  1 27  1  0  0  0
  1  2  1  0  0  0
 27 28  1  0  0  0
 28 30  1  0  0  0
 28 29  1  0  0  0
 30 31  2  0  0  0
 30 32  2  0  0  0
 30 33  1  0  0  0
 33 34  1  0  0  0
 33 38  2  0  0  0
 34 35  2  0  0  0
 35 36  1  0  0  0
 35 42  1  0  0  0
 36 37  2  0  0  0
 36 39  1  0  0  0
 37 38  1  0  0  0
 39 40  2  0  0  0
 40 41  1  0  0  0
 40 43  1  0  0  0
 41 42  2  0  0  0
 12 14  1  0  0  0
 12 13  1  0  0  0
 14 15  1  0  0  0
 15 16  1  0  0  0
 15 20  1  0  0  0
 16 17  1  0  0  0
 17 18  1  0  0  0
 18 21  1  0  0  0
 18 19  1  0  0  0
 21 22  1  0  0  0
 21 26  2  0  0  0
 22 23  2  0  0  0
 23 24  1  0  0  0
 24 25  2  0  0  0
 25 26  1  0  0  0
 19 20  1  0  0  0
M  END
> <minimizedAffinity>
-12.03447

$$$$
