data/FXA/cocry_dataset/1iqe_XMB_LIG.pdb
 OpenBabel03092321123D

 43 47  0  0  0  0  0  0  0  0999 V2000
    4.3077    6.1276   21.9330 C   0  0  1  0  0  0  0  0  0  0  0  0
    4.4602    7.1723   20.7844 C   0  0  0  0  0  0  0  0  0  0  0  0
    3.4700    7.8539   20.4847 O   0  0  0  0  0  0  0  0  0  0  0  0
    5.6721    7.3628   20.1173 N   0  0  0  0  0  0  0  0  0  0  0  0
    6.9279    6.6403   20.3366 C   0  0  0  0  0  0  0  0  0  0  0  0
    7.9595    7.5265   21.0032 C   0  0  0  0  0  0  0  0  0  0  0  0
    8.3253    8.8997   19.9448 S   0  0  0  0  0  0  0  0  0  0  0  0
    9.0746    9.8728   20.7147 O   0  0  0  0  0  0  0  0  0  0  0  0
    8.8612    8.3755   18.7022 O   0  0  0  0  0  0  0  0  0  0  0  0
    6.7069    9.5643   19.6275 C   0  0  0  0  0  0  0  0  0  0  0  0
    5.7748    8.4650   19.1436 C   0  0  0  0  0  0  0  0  0  0  0  0
    5.2426    4.9903   21.7285 N   0  0  0  0  0  0  0  0  0  0  0  0
    5.6899    4.7194   22.5999 H   0  0  0  0  0  0  0  0  0  0  0  0
    4.6475    3.8207   21.0760 C   0  0  0  0  0  0  0  0  0  0  0  0
    5.3841    2.5301   21.4885 C   0  0  0  0  0  0  0  0  0  0  0  0
    6.9136    2.6812   21.4816 C   0  0  0  0  0  0  0  0  0  0  0  0
    7.4703    2.7758   20.0633 C   0  0  0  0  0  0  0  0  0  0  0  0
    7.0180    1.6189   19.2859 N   0  0  0  0  0  0  0  0  0  0  0  0
    5.5763    1.4040   19.1906 C   0  0  0  0  0  0  0  0  0  0  0  0
    4.9841    1.3362   20.6010 C   0  0  0  0  0  0  0  0  0  0  0  0
    7.9124    0.8234   18.5900 C   0  0  0  0  0  0  0  0  0  0  0  0
    7.5052    0.0568   17.4937 C   0  0  0  0  0  0  0  0  0  0  0  0
    8.4352   -0.6977   16.7923 C   0  0  0  0  0  0  0  0  0  0  0  0
    9.7440   -0.7554   17.1036 N   0  0  0  0  0  0  0  0  0  0  0  0
   10.1304   -0.0232   18.1660 C   0  0  0  0  0  0  0  0  0  0  0  0
    9.2700    0.7648   18.9196 C   0  0  0  0  0  0  0  0  0  0  0  0
    4.3275    6.7570   23.3390 C   0  0  0  0  0  0  0  0  0  0  0  0
    5.6875    7.0149   23.8492 N   0  0  0  0  0  0  0  0  0  0  0  0
    6.4340    6.5591   23.3156 H   0  0  0  0  0  0  0  0  0  0  0  0
    6.0617    8.6467   24.1454 S   0  0  0  0  0  0  0  0  0  0  0  0
    5.9615    9.3648   22.8955 O   0  0  0  0  0  0  0  0  0  0  0  0
    5.3085    9.0298   25.3182 O   0  0  0  0  0  0  0  0  0  0  0  0
    7.7720    8.5511   24.6033 C   0  0  0  0  0  0  0  0  0  0  0  0
    8.1660    7.7250   25.6609 C   0  0  0  0  0  0  0  0  0  0  0  0
    9.5221    7.6336   26.0102 C   0  0  0  0  0  0  0  0  0  0  0  0
   10.4811    8.3693   25.2687 C   0  0  0  0  0  0  0  0  0  0  0  0
   10.0617    9.1785   24.2014 C   0  0  0  0  0  0  0  0  0  0  0  0
    8.7119    9.2700   23.8651 C   0  0  0  0  0  0  0  0  0  0  0  0
   11.8384    8.2687   25.6047 C   0  0  0  0  0  0  0  0  0  0  0  0
   12.2430    7.4566   26.6631 C   0  0  0  0  0  0  0  0  0  0  0  0
   11.3057    6.7371   27.4026 C   0  0  0  0  0  0  0  0  0  0  0  0
    9.9511    6.8239   27.0741 C   0  0  0  0  0  0  0  0  0  0  0  0
   13.9123    7.3508   27.0626 Cl  0  0  0  0  0  0  0  0  0  0  0  0
  1 12  1  0  0  0  0
  1 27  1  1  0  0  0
  1  2  1  0  0  0  0
  2  3  2  0  0  0  0
  2  4  1  0  0  0  0
  4  5  1  0  0  0  0
  4 11  1  0  0  0  0
  5  6  1  0  0  0  0
  6  7  1  0  0  0  0
  7  8  2  0  0  0  0
  7  9  2  0  0  0  0
  7 10  1  0  0  0  0
 10 11  1  0  0  0  0
 12 14  1  0  0  0  0
 12 13  1  0  0  0  0
 14 15  1  0  0  0  0
 15 16  1  0  0  0  0
 15 20  1  0  0  0  0
 16 17  1  0  0  0  0
 17 18  1  0  0  0  0
 18 21  1  0  0  0  0
 18 19  1  0  0  0  0
 19 20  1  0  0  0  0
 21 22  1  0  0  0  0
 21 26  2  0  0  0  0
 22 23  2  0  0  0  0
 23 24  1  0  0  0  0
 24 25  2  0  0  0  0
 25 26  1  0  0  0  0
 27 28  1  0  0  0  0
 28 30  1  0  0  0  0
 28 29  1  0  0  0  0
 30 31  2  0  0  0  0
 30 32  2  0  0  0  0
 30 33  1  0  0  0  0
 33 34  1  0  0  0  0
 33 38  2  0  0  0  0
 34 35  2  0  0  0  0
 35 36  1  0  0  0  0
 35 42  1  0  0  0  0
 36 37  2  0  0  0  0
 36 39  1  0  0  0  0
 37 38  1  0  0  0  0
 39 40  2  0  0  0  0
 40 41  1  0  0  0  0
 40 43  1  0  0  0  0
 41 42  2  0  0  0  0
M  END
>  <minimizedAffinity>
-12.47180

$$$$
