# created with PyMOL 2.5.0
@<TRIPOS>MOLECULE
data/FXA/cocry_dataset/1iqe_XMB_LIG.pdb
75 79 1                 
SMALL
USER_CHARGES
@<TRIPOS>ATOM
1	 H34	10.865	0.575	19.148	 H	1	UNK0	0.000	
2	 H32	7.557	-1.479	16.052	 H	1	UNK0	0.000	
3	 H17	5.670	5.941	15.705	 H	1	UNK0	0.000	
4	 H33	11.547	-1.288	17.654	 H	1	UNK0	0.000	
5	 H01	4.152	6.784	20.759	 H	1	UNK0	0.000	
6	 H16	5.689	6.358	13.976	 H	1	UNK0	0.000	
7	 H04	4.830	6.998	24.604	 H	1	UNK0	0.000	
8	 H03	4.983	5.908	22.420	 H	1	UNK0	0.000	
9	 H02	6.490	5.661	23.357	 H	1	UNK0	0.000	
10	 H14	4.082	8.143	14.345	 H	1	UNK0	0.000	
11	 H08	8.480	7.867	21.273	 H	1	UNK0	0.000	
12	 H07	7.280	9.496	22.608	 H	1	UNK0	0.000	
13	 H18	7.300	9.241	16.553	 H	1	UNK0	0.000	
14	 H06	8.792	9.023	23.430	 H	1	UNK0	0.000	
15	 H13	3.057	8.615	16.463	 H	1	UNK0	0.000	
16	 H12	4.484	6.198	17.441	 H	1	UNK0	0.000	
17	 H27	4.284	4.686	20.344	 H	1	UNK0	0.000	
18	 H11	2.832	6.802	17.767	 H	1	UNK0	0.000	
19	 H10	3.571	8.198	19.312	 H	1	UNK0	0.000	
20	 H05	4.857	8.215	23.308	 H	1	UNK0	0.000	
21	 H15	3.429	6.609	15.018	 H	1	UNK0	0.000	
22	 H26	4.138	5.186	18.611	 H	1	UNK0	0.000	
23	 H21	5.044	9.895	15.995	 H	1	UNK0	0.000	
24	 H20	5.086	9.421	17.739	 H	1	UNK0	0.000	
25	 H19	6.733	7.747	17.331	 H	1	UNK0	0.000	
26	 H22	6.873	9.882	13.625	 H	1	UNK0	0.000	
27	 H25	8.711	6.169	14.773	 H	1	UNK0	0.000	
28	 H24	10.529	6.660	13.210	 H	1	UNK0	0.000	
29	 H23	8.756	10.275	12.113	 H	1	UNK0	0.000	
30	 H09	8.526	6.726	22.661	 H	1	UNK0	0.000	
31	 H30	5.836	0.062	16.858	 H	1	UNK0	0.000	
32	 H29	9.123	2.112	19.987	 H	1	UNK0	0.000	
33	 H28	5.973	4.182	18.301	 H	1	UNK0	0.000	
34	 H31	5.138	1.923	18.347	 H	1	UNK0	0.000	
35	   C	4.841	6.719	19.917	C.3	1	UNK0	0.000	
36	   C	6.262	7.131	20.412	C.2	1	UNK0	0.000	
37	   O	7.041	7.631	19.588	O.2	1	UNK0	0.000	
38	   N	6.655	6.969	21.742	N.pl3	1	UNK0	0.000	
39	   C	5.870	6.389	22.834	C.3	1	UNK0	0.000	
40	   C	5.440	7.452	23.823	C.3	1	UNK0	0.000	
41	   S	6.877	8.192	24.550	S.o2	1	UNK0	0.000	
42	   O	6.458	9.387	25.256	O.2	1	UNK0	0.000	
43	   O	7.614	7.151	25.241	O.2	1	UNK0	0.000	
44	   C	7.804	8.686	23.116	C.3	1	UNK0	0.000	
45	   C	7.960	7.512	22.162	C.3	1	UNK0	0.000	
46	   N	4.341	7.687	18.906	N.3	1	UNK0	0.000	
47	   C	3.880	7.080	17.655	C.3	1	UNK0	0.000	
48	   C	4.005	8.076	16.484	C.3	1	UNK0	0.000	
49	   C	4.186	7.386	15.123	C.3	1	UNK0	0.000	
50	   C	5.568	6.753	14.985	C.3	1	UNK0	0.000	
51	   N	6.595	7.767	15.240	N.pl3	1	UNK0	0.000	
52	   C	6.542	8.457	16.526	C.3	1	UNK0	0.000	
53	   C	5.154	9.078	16.707	C.3	1	UNK0	0.000	
54	   C	7.627	7.989	14.345	C.2	1	UNK0	0.000	
55	   C	7.675	9.147	13.562	C.2	1	UNK0	0.000	
56	   C	8.746	9.359	12.704	C.2	1	UNK0	0.000	
57	   N	9.773	8.500	12.558	N.2	1	UNK0	0.000	
58	   C	9.717	7.382	13.307	C.2	1	UNK0	0.000	
59	   C	8.689	7.093	14.195	C.2	1	UNK0	0.000	
60	   C	4.739	5.234	19.519	C.3	1	UNK0	0.000	
61	   N	6.042	4.616	19.209	N.3	1	UNK0	0.000	
62	   S	6.577	3.440	20.315	S.o2	1	UNK0	0.000	
63	   O	7.739	3.961	20.997	O.2	1	UNK0	0.000	
64	   O	5.403	2.987	21.026	O.2	1	UNK0	0.000	
65	   C	7.097	2.134	19.234	C.2	1	UNK0	0.000	
66	   C	8.413	1.665	19.290	C.2	1	UNK0	0.000	
67	   C	8.819	0.617	18.449	C.2	1	UNK0	0.000	
68	   C	7.879	0.034	17.563	C.2	1	UNK0	0.000	
69	   C	6.560	0.513	17.537	C.2	1	UNK0	0.000	
70	   C	6.165	1.558	18.370	C.2	1	UNK0	0.000	
71	   C	8.277	-1.023	16.732	C.2	1	UNK0	0.000	
72	   C	9.588	-1.493	16.772	C.2	1	UNK0	0.000	
73	   C	10.521	-0.920	17.634	C.2	1	UNK0	0.000	
74	   C	10.136	0.130	18.471	C.2	1	UNK0	0.000	
75	  Cl	10.058	-2.787	15.741	Cl	1	UNK0	0.000	
@<TRIPOS>BOND
1 5 35 1
2 35 36 1
3 35 46 1
4 35 60 1
5 36 37 2
6 36 38 1
7 38 39 1
8 38 45 1
9 8 39 1
10 9 39 1
11 39 40 1
12 7 40 1
13 20 40 1
14 40 41 1
15 41 42 2
16 41 43 2
17 41 44 1
18 12 44 1
19 14 44 1
20 44 45 1
21 11 45 1
22 30 45 1
23 19 46 1
24 46 47 1
25 16 47 1
26 18 47 1
27 47 48 1
28 15 48 1
29 48 49 1
30 48 53 1
31 10 49 1
32 21 49 1
33 49 50 1
34 3 50 1
35 6 50 1
36 50 51 1
37 51 52 1
38 51 54 1
39 13 52 1
40 25 52 1
41 52 53 1
42 23 53 1
43 24 53 1
44 54 55 1
45 54 59 2
46 26 55 1
47 55 56 2
48 29 56 1
49 56 57 1
50 57 58 2
51 28 58 1
52 58 59 1
53 27 59 1
54 17 60 1
55 22 60 1
56 60 61 1
57 33 61 1
58 61 62 1
59 62 63 2
60 62 64 2
61 62 65 1
62 65 66 1
63 65 70 2
64 32 66 1
65 66 67 2
66 67 68 1
67 67 74 1
68 68 69 2
69 68 71 1
70 31 69 1
71 69 70 1
72 34 70 1
73 2 71 1
74 71 72 2
75 72 73 1
76 72 75 1
77 4 73 1
78 73 74 2
79 1 74 1
@<TRIPOS>SUBSTRUCTURE
1	UNK0	1	GROUP	1 ****	UNK
