# created with PyMOL 2.5.0
@<TRIPOS>MOLECULE
data/FXA/cocry_dataset/1iqf_XMD_LIG.pdb
66 70 1                 
SMALL
USER_CHARGES
@<TRIPOS>ATOM
1	 H19	6.319	7.416	20.829	 H	1	UNK0	0.000	
2	 H04	2.750	5.150	18.536	 H	1	UNK0	0.000	
3	 H18	3.933	8.557	21.207	 H	1	UNK0	0.000	
4	 H22	6.328	7.313	25.773	 H	1	UNK0	0.000	
5	 H26	10.817	7.605	27.266	 H	1	UNK0	0.000	
6	 H23	4.228	7.252	24.580	 H	1	UNK0	0.000	
7	 H27	8.667	6.777	26.441	 H	1	UNK0	0.000	
8	 H25	11.299	10.036	23.910	 H	1	UNK0	0.000	
9	 H05	4.548	5.402	18.277	 H	1	UNK0	0.000	
10	 H09	10.405	1.128	19.467	 H	1	UNK0	0.000	
11	 H03	4.137	5.848	22.176	 H	1	UNK0	0.000	
12	 H02	1.969	4.286	20.399	 H	1	UNK0	0.000	
13	 H13	1.449	6.405	23.149	 H	1	UNK0	0.000	
14	 H01	2.906	3.171	21.406	 H	1	UNK0	0.000	
15	 H08	5.485	-0.017	17.205	 H	1	UNK0	0.000	
16	 H07	4.502	1.717	18.647	 H	1	UNK0	0.000	
17	 H24	9.170	9.276	22.973	 H	1	UNK0	0.000	
18	 H06	8.392	2.526	20.312	 H	1	UNK0	0.000	
19	 H12	0.006	5.509	23.668	 H	1	UNK0	0.000	
20	 H11	7.390	-1.277	16.353	 H	1	UNK0	0.000	
21	 H10	11.330	-0.585	17.917	 H	1	UNK0	0.000	
22	 H21	7.773	5.894	22.567	 H	1	UNK0	0.000	
23	 H16	1.684	5.169	25.829	 H	1	UNK0	0.000	
24	 H15	0.430	6.427	25.708	 H	1	UNK0	0.000	
25	 H14	2.117	6.808	25.287	 H	1	UNK0	0.000	
26	 H17	3.114	7.924	22.727	 H	1	UNK0	0.000	
27	 H20	8.415	7.504	22.120	 H	1	UNK0	0.000	
28	   N	3.986	4.055	19.814	N.3	1	UNK0	0.000	
29	   C	2.942	4.113	20.858	C.3	1	UNK0	0.000	
30	   C	3.282	5.274	21.818	C.3	1	UNK0	0.000	
31	   N	3.181	6.607	21.149	N.pl3	1	UNK0	0.000	
32	   C	3.617	6.633	19.769	C.2	1	UNK0	0.000	
33	   O	3.852	7.694	19.171	O.2	1	UNK0	0.000	
34	   C	3.730	5.301	18.990	C.3	1	UNK0	0.000	
35	   S	5.672	3.818	20.274	S.o2	1	UNK0	0.000	
36	   O	5.771	3.730	21.712	O.2	1	UNK0	0.000	
37	   O	6.392	4.889	19.601	O.2	1	UNK0	0.000	
38	   C	7.751	1.961	19.635	C.2	1	UNK0	0.000	
39	   C	6.361	2.259	19.601	C.2	1	UNK0	0.000	
40	   C	5.572	1.520	18.705	C.2	1	UNK0	0.000	
41	   C	6.134	0.534	17.886	C.2	1	UNK0	0.000	
42	   C	7.510	0.231	17.913	C.2	1	UNK0	0.000	
43	   C	8.344	0.936	18.804	C.2	1	UNK0	0.000	
44	   C	9.731	0.610	18.783	C.2	1	UNK0	0.000	
45	   C	10.263	-0.361	17.906	C.2	1	UNK0	0.000	
46	   C	9.416	-1.028	17.027	C.2	1	UNK0	0.000	
47	  Cl	10.055	-2.192	15.926	Cl	1	UNK0	0.000	
48	   C	8.052	-0.742	17.034	C.2	1	UNK0	0.000	
49	   C	3.025	4.593	23.156	C.2	1	UNK0	0.000	
50	   O	3.994	4.099	23.742	O.co2	1	UNK0	0.000	
51	   O	1.759	4.381	23.549	O.3	1	UNK0	0.000	
52	   C	1.078	5.632	23.822	C.3	1	UNK0	0.000	
53	   C	1.346	6.037	25.264	C.3	1	UNK0	0.000	
54	   C	3.799	7.728	21.902	C.3	1	UNK0	0.000	
55	   C	5.144	7.462	22.564	C.2	1	UNK0	0.000	
56	   C	6.308	7.302	21.913	C.2	1	UNK0	0.000	
57	   C	7.605	6.970	22.615	C.3	1	UNK0	0.000	
58	   N	7.561	7.390	24.034	N.pl3	1	UNK0	0.000	
59	   C	6.339	7.346	24.683	C.2	1	UNK0	0.000	
60	   C	5.163	7.343	24.027	C.2	1	UNK0	0.000	
61	   C	8.744	7.918	24.604	C.2	1	UNK0	0.000	
62	   C	9.515	8.872	23.925	C.2	1	UNK0	0.000	
63	   C	10.718	9.301	24.468	C.2	1	UNK0	0.000	
64	   N	11.211	8.865	25.643	N.2	1	UNK0	0.000	
65	   C	10.453	7.971	26.307	C.2	1	UNK0	0.000	
66	   C	9.236	7.488	25.843	C.2	1	UNK0	0.000	
@<TRIPOS>BOND
1 28 29 1
2 28 34 1
3 12 29 1
4 14 29 1
5 29 30 1
6 11 30 1
7 30 31 1
8 30 49 1
9 31 32 1
10 31 54 1
11 32 33 2
12 32 34 1
13 2 34 1
14 9 34 1
15 28 35 1
16 35 36 2
17 35 37 2
18 18 38 1
19 38 39 1
20 38 43 2
21 35 39 1
22 39 40 2
23 16 40 1
24 40 41 1
25 15 41 1
26 41 42 2
27 42 43 1
28 42 48 1
29 43 44 1
30 10 44 1
31 44 45 2
32 21 45 1
33 45 46 1
34 46 47 1
35 46 48 2
36 20 48 1
37 49 50 2
38 49 51 1
39 51 52 1
40 13 52 1
41 19 52 1
42 52 53 1
43 23 53 1
44 24 53 1
45 25 53 1
46 3 54 1
47 26 54 1
48 54 55 1
49 55 56 2
50 55 60 1
51 1 56 1
52 56 57 1
53 22 57 1
54 27 57 1
55 57 58 1
56 58 59 1
57 58 61 1
58 4 59 1
59 59 60 2
60 6 60 1
61 61 62 1
62 61 66 2
63 17 62 1
64 62 63 2
65 8 63 1
66 63 64 1
67 64 65 2
68 5 65 1
69 65 66 1
70 7 66 1
@<TRIPOS>SUBSTRUCTURE
1	UNK0	1	GROUP	1 ****	UNK
