# created with PyMOL 2.5.0
@<TRIPOS>MOLECULE
data/FXA/cocry_dataset/1iqf_XMD_LIG.pdb
66 70 1                 
SMALL
USER_CHARGES
@<TRIPOS>ATOM
1	 H19	5.397	5.643	23.180	 H	1	UNK0	0.000	
2	 H04	2.516	4.983	18.048	 H	1	UNK0	0.000	
3	 H18	6.209	4.017	21.085	 H	1	UNK0	0.000	
4	 H22	9.172	8.323	21.442	 H	1	UNK0	0.000	
5	 H26	9.983	7.455	27.332	 H	1	UNK0	0.000	
6	 H23	7.913	6.914	19.937	 H	1	UNK0	0.000	
7	 H27	8.220	6.893	25.730	 H	1	UNK0	0.000	
8	 H25	11.698	10.168	24.667	 H	1	UNK0	0.000	
9	 H05	3.426	3.517	17.428	 H	1	UNK0	0.000	
10	 H09	7.030	0.329	15.920	 H	1	UNK0	0.000	
11	 H03	4.646	3.808	21.169	 H	1	UNK0	0.000	
12	 H02	1.916	5.155	20.154	 H	1	UNK0	0.000	
13	 H13	2.726	3.196	24.592	 H	1	UNK0	0.000	
14	 H01	1.601	3.746	21.180	 H	1	UNK0	0.000	
15	 H08	7.546	1.176	21.364	 H	1	UNK0	0.000	
16	 H07	5.190	1.883	21.403	 H	1	UNK0	0.000	
17	 H24	9.997	9.684	22.976	 H	1	UNK0	0.000	
18	 H06	4.915	1.164	17.164	 H	1	UNK0	0.000	
19	 H12	1.228	4.113	24.852	 H	1	UNK0	0.000	
20	 H11	9.512	0.315	20.210	 H	1	UNK0	0.000	
21	 H10	9.393	-0.448	15.985	 H	1	UNK0	0.000	
22	 H21	6.015	8.277	23.542	 H	1	UNK0	0.000	
23	 H16	0.750	1.699	24.641	 H	1	UNK0	0.000	
24	 H15	1.541	1.677	23.047	 H	1	UNK0	0.000	
25	 H14	0.040	2.602	23.282	 H	1	UNK0	0.000	
26	 H17	6.623	5.104	19.661	 H	1	UNK0	0.000	
27	 H20	6.748	7.081	24.655	 H	1	UNK0	0.000	
28	   N	2.414	3.299	19.277	N.3	1	UNK0	0.000	
29	   C	2.294	4.179	20.458	C.3	1	UNK0	0.000	
30	   C	3.694	4.334	21.091	C.3	1	UNK0	0.000	
31	   N	4.638	5.074	20.198	N.pl3	1	UNK0	0.000	
32	   C	4.489	4.796	18.785	C.2	1	UNK0	0.000	
33	   O	5.356	5.110	17.956	O.2	1	UNK0	0.000	
34	   C	3.178	4.149	18.281	C.3	1	UNK0	0.000	
35	   S	3.038	1.661	19.467	S.o2	1	UNK0	0.000	
36	   O	2.486	0.812	18.437	O.2	1	UNK0	0.000	
37	   O	2.764	1.319	20.855	O.2	1	UNK0	0.000	
38	   C	5.495	1.175	18.087	C.2	1	UNK0	0.000	
39	   C	4.861	1.589	19.290	C.2	1	UNK0	0.000	
40	   C	5.638	1.574	20.459	C.2	1	UNK0	0.000	
41	   C	6.977	1.171	20.434	C.2	1	UNK0	0.000	
42	   C	7.616	0.760	19.247	C.2	1	UNK0	0.000	
43	   C	6.883	0.768	18.043	C.2	1	UNK0	0.000	
44	   C	7.563	0.326	16.871	C.2	1	UNK0	0.000	
45	   C	8.903	-0.117	16.901	C.2	1	UNK0	0.000	
46	   C	9.595	-0.128	18.108	C.2	1	UNK0	0.000	
47	  Cl	11.223	-0.698	18.167	Cl	1	UNK0	0.000	
48	   C	8.963	0.313	19.269	C.2	1	UNK0	0.000	
49	   C	3.339	4.160	22.562	C.2	1	UNK0	0.000	
50	   O	4.217	3.724	23.314	O.co2	1	UNK0	0.000	
51	   O	2.059	4.291	22.946	O.3	1	UNK0	0.000	
52	   C	1.787	3.510	24.136	C.3	1	UNK0	0.000	
53	   C	0.972	2.285	23.749	C.3	1	UNK0	0.000	
54	   C	6.067	4.978	20.590	C.3	1	UNK0	0.000	
55	   C	6.606	6.057	21.520	C.2	1	UNK0	0.000	
56	   C	6.167	6.295	22.767	C.2	1	UNK0	0.000	
57	   C	6.690	7.425	23.622	C.3	1	UNK0	0.000	
58	   N	8.043	7.837	23.185	N.pl3	1	UNK0	0.000	
59	   C	8.348	7.729	21.839	C.2	1	UNK0	0.000	
60	   C	7.671	6.923	20.999	C.2	1	UNK0	0.000	
61	   C	8.976	8.205	24.184	C.2	1	UNK0	0.000	
62	   C	9.973	9.158	23.930	C.2	1	UNK0	0.000	
63	   C	10.930	9.431	24.899	C.2	1	UNK0	0.000	
64	   N	10.967	8.838	26.108	N.2	1	UNK0	0.000	
65	   C	9.990	7.946	26.359	C.2	1	UNK0	0.000	
66	   C	8.991	7.613	25.453	C.2	1	UNK0	0.000	
@<TRIPOS>BOND
1 28 29 1
2 28 34 1
3 12 29 1
4 14 29 1
5 29 30 1
6 11 30 1
7 30 31 1
8 30 49 1
9 31 32 1
10 31 54 1
11 32 33 2
12 32 34 1
13 2 34 1
14 9 34 1
15 28 35 1
16 35 36 2
17 35 37 2
18 18 38 1
19 38 39 1
20 38 43 2
21 35 39 1
22 39 40 2
23 16 40 1
24 40 41 1
25 15 41 1
26 41 42 2
27 42 43 1
28 42 48 1
29 43 44 1
30 10 44 1
31 44 45 2
32 21 45 1
33 45 46 1
34 46 47 1
35 46 48 2
36 20 48 1
37 49 50 2
38 49 51 1
39 51 52 1
40 13 52 1
41 19 52 1
42 52 53 1
43 23 53 1
44 24 53 1
45 25 53 1
46 3 54 1
47 26 54 1
48 54 55 1
49 55 56 2
50 55 60 1
51 1 56 1
52 56 57 1
53 22 57 1
54 27 57 1
55 57 58 1
56 58 59 1
57 58 61 1
58 4 59 1
59 59 60 2
60 6 60 1
61 61 62 1
62 61 66 2
63 17 62 1
64 62 63 2
65 8 63 1
66 63 64 1
67 64 65 2
68 5 65 1
69 65 66 1
70 7 66 1
@<TRIPOS>SUBSTRUCTURE
1	UNK0	1	GROUP	1 ****	UNK
