data/FXA/cocry_dataset/1iqf_XMD_LIG.pdb


 39 43  0  0  0  0  0  0  0  0999 V2000
    3.9858    4.0546   19.8139 N   0  0  0  0  0  0  0  0  0  0  0  0
    2.9424    4.1129   20.8581 C   0  0  0  0  0  0  0  0  0  0  0  0
    3.2824    5.2739   21.8183 C   0  0  0  0  0  0  0  0  0  0  0  0
    3.1807    6.6067   21.1486 N   0  0  0  0  0  0  0  0  0  0  0  0
    3.6171    6.6330   19.7687 C   0  0  0  0  0  0  0  0  0  0  0  0
    3.8518    7.6940   19.1707 O   0  0  0  0  0  0  0  0  0  0  0  0
    3.7296    5.3013   18.9901 C   0  0  0  0  0  0  0  0  0  0  0  0
    5.6715    3.8179   20.2738 S   0  0  0  0  0  0  0  0  0  0  0  0
    5.7711    3.7300   21.7119 O   0  0  0  0  0  0  0  0  0  0  0  0
    6.3925    4.8889   19.6015 O   0  0  0  0  0  0  0  0  0  0  0  0
    7.7509    1.9611   19.6349 C   0  0  0  0  0  0  0  0  0  0  0  0
    6.3607    2.2589   19.6005 C   0  0  0  0  0  0  0  0  0  0  0  0
    5.5719    1.5198   18.7050 C   0  0  0  0  0  0  0  0  0  0  0  0
    6.1336    0.5344   17.8861 C   0  0  0  0  0  0  0  0  0  0  0  0
    7.5099    0.2311   17.9125 C   0  0  0  0  0  0  0  0  0  0  0  0
    8.3444    0.9360   18.8041 C   0  0  0  0  0  0  0  0  0  0  0  0
    9.7315    0.6102   18.7829 C   0  0  0  0  0  0  0  0  0  0  0  0
   10.2634   -0.3605   17.9057 C   0  0  0  0  0  0  0  0  0  0  0  0
    9.4158   -1.0275   17.0268 C   0  0  0  0  0  0  0  0  0  0  0  0
   10.0554   -2.1924   15.9259 Cl  0  0  0  0  0  0  0  0  0  0  0  0
    8.0521   -0.7424   17.0340 C   0  0  0  0  0  0  0  0  0  0  0  0
    3.0247    4.5932   23.1561 C   0  0  0  0  0  0  0  0  0  0  0  0
    3.9938    4.0989   23.7415 O   0  0  0  0  0  0  0  0  0  0  0  0
    1.7588    4.3810   23.5492 O   0  0  0  0  0  0  0  0  0  0  0  0
    1.0781    5.6320   23.8222 C   0  0  0  0  0  0  0  0  0  0  0  0
    1.3460    6.0372   25.2638 C   0  0  0  0  0  0  0  0  0  0  0  0
    3.7990    7.7281   21.9021 C   0  0  0  0  0  0  0  0  0  0  0  0
    5.1438    7.4619   22.5636 C   0  0  0  0  0  0  0  0  0  0  0  0
    6.3085    7.3018   21.9130 C   0  0  0  0  0  0  0  0  0  0  0  0
    7.6047    6.9701   22.6155 C   0  0  0  0  0  0  0  0  0  0  0  0
    7.5605    7.3903   24.0339 N   0  0  0  0  0  0  0  0  0  0  0  0
    6.3387    7.3461   24.6833 C   0  0  0  0  0  0  0  0  0  0  0  0
    5.1627    7.3428   24.0267 C   0  0  0  0  0  0  0  0  0  0  0  0
    8.7441    7.9177   24.6040 C   0  0  0  0  0  0  0  0  0  0  0  0
    9.5147    8.8722   23.9246 C   0  0  0  0  0  0  0  0  0  0  0  0
   10.7182    9.3014   24.4681 C   0  0  0  0  0  0  0  0  0  0  0  0
   11.2108    8.8652   25.6431 N   0  0  0  0  0  0  0  0  0  0  0  0
   10.4533    7.9715   26.3066 C   0  0  0  0  0  0  0  0  0  0  0  0
    9.2365    7.4884   25.8429 C   0  0  0  0  0  0  0  0  0  0  0  0
 11 12  1  0  0  0
 11 16  2  0  0  0
 12 13  2  0  0  0
 12  8  1  0  0  0
 13 14  1  0  0  0
 14 15  2  0  0  0
 15 16  1  0  0  0
 15 21  1  0  0  0
 16 17  1  0  0  0
 17 18  2  0  0  0
 18 19  1  0  0  0
 19 20  1  0  0  0
 19 21  2  0  0  0
  8  9  2  0  0  0
  8 10  2  0  0  0
  8  1  1  0  0  0
  1  2  1  0  0  0
  1  7  1  0  0  0
  2  3  1  0  0  0
  3  4  1  0  0  0
  3 22  1  0  0  0
 22 23  2  0  0  0
 22 24  1  0  0  0
 24 25  1  0  0  0
 25 26  1  0  0  0
  4  5  1  0  0  0
  4 27  1  0  0  0
  5  6  2  0  0  0
  5  7  1  0  0  0
 27 28  1  0  0  0
 28 29  2  0  0  0
 28 33  1  0  0  0
 29 30  1  0  0  0
 30 31  1  0  0  0
 31 34  1  0  0  0
 31 32  1  0  0  0
 34 35  1  0  0  0
 34 39  2  0  0  0
 35 36  2  0  0  0
 36 37  1  0  0  0
 37 38  2  0  0  0
 38 39  1  0  0  0
 32 33  2  0  0  0
M  END
> <minimizedAffinity>
-11.28208

$$$$
data/FXA/cocry_dataset/1iqf_XMD_LIG.pdb


 39 43  0  0  0  0  0  0  0  0999 V2000
    2.4142    3.2990   19.2773 N   0  0  0  0  0  0  0  0  0  0  0  0
    2.2943    4.1789   20.4579 C   0  0  0  0  0  0  0  0  0  0  0  0
    3.6945    4.3336   21.0911 C   0  0  0  0  0  0  0  0  0  0  0  0
    4.6376    5.0743   20.1981 N   0  0  0  0  0  0  0  0  0  0  0  0
    4.4886    4.7960   18.7854 C   0  0  0  0  0  0  0  0  0  0  0  0
    5.3557    5.1097   17.9559 O   0  0  0  0  0  0  0  0  0  0  0  0
    3.1776    4.1490   18.2806 C   0  0  0  0  0  0  0  0  0  0  0  0
    3.0378    1.6606   19.4671 S   0  0  0  0  0  0  0  0  0  0  0  0
    2.4859    0.8123   18.4367 O   0  0  0  0  0  0  0  0  0  0  0  0
    2.7639    1.3187   20.8553 O   0  0  0  0  0  0  0  0  0  0  0  0
    5.4951    1.1749   18.0867 C   0  0  0  0  0  0  0  0  0  0  0  0
    4.8606    1.5886   19.2903 C   0  0  0  0  0  0  0  0  0  0  0  0
    5.6381    1.5743   20.4589 C   0  0  0  0  0  0  0  0  0  0  0  0
    6.9774    1.1712   20.4345 C   0  0  0  0  0  0  0  0  0  0  0  0
    7.6161    0.7596   19.2472 C   0  0  0  0  0  0  0  0  0  0  0  0
    6.8828    0.7679   18.0428 C   0  0  0  0  0  0  0  0  0  0  0  0
    7.5627    0.3256   16.8711 C   0  0  0  0  0  0  0  0  0  0  0  0
    8.9035   -0.1172   16.9008 C   0  0  0  0  0  0  0  0  0  0  0  0
    9.5948   -0.1282   18.1081 C   0  0  0  0  0  0  0  0  0  0  0  0
   11.2228   -0.6976   18.1667 Cl  0  0  0  0  0  0  0  0  0  0  0  0
    8.9626    0.3128   19.2687 C   0  0  0  0  0  0  0  0  0  0  0  0
    3.3391    4.1600   22.5618 C   0  0  0  0  0  0  0  0  0  0  0  0
    4.2170    3.7244   23.3139 O   0  0  0  0  0  0  0  0  0  0  0  0
    2.0595    4.2912   22.9456 O   0  0  0  0  0  0  0  0  0  0  0  0
    1.7868    3.5099   24.1365 C   0  0  0  0  0  0  0  0  0  0  0  0
    0.9721    2.2850   23.7494 C   0  0  0  0  0  0  0  0  0  0  0  0
    6.0674    4.9783   20.5904 C   0  0  0  0  0  0  0  0  0  0  0  0
    6.6064    6.0569   21.5195 C   0  0  0  0  0  0  0  0  0  0  0  0
    6.1667    6.2949   22.7667 C   0  0  0  0  0  0  0  0  0  0  0  0
    6.6904    7.4252   23.6221 C   0  0  0  0  0  0  0  0  0  0  0  0
    8.0434    7.8366   23.1853 N   0  0  0  0  0  0  0  0  0  0  0  0
    8.3483    7.7294   21.8392 C   0  0  0  0  0  0  0  0  0  0  0  0
    7.6713    6.9231   20.9993 C   0  0  0  0  0  0  0  0  0  0  0  0
    8.9764    8.2053   24.1840 C   0  0  0  0  0  0  0  0  0  0  0  0
    9.9734    9.1583   23.9303 C   0  0  0  0  0  0  0  0  0  0  0  0
   10.9303    9.4307   24.8989 C   0  0  0  0  0  0  0  0  0  0  0  0
   10.9666    8.8384   26.1078 N   0  0  0  0  0  0  0  0  0  0  0  0
    9.9900    7.9462   26.3586 C   0  0  0  0  0  0  0  0  0  0  0  0
    8.9907    7.6132   25.4533 C   0  0  0  0  0  0  0  0  0  0  0  0
 11 12  1  0  0  0
 11 16  2  0  0  0
 12 13  2  0  0  0
 12  8  1  0  0  0
 13 14  1  0  0  0
 14 15  2  0  0  0
 15 16  1  0  0  0
 15 21  1  0  0  0
 16 17  1  0  0  0
 17 18  2  0  0  0
 18 19  1  0  0  0
 19 20  1  0  0  0
 19 21  2  0  0  0
  8  9  2  0  0  0
  8 10  2  0  0  0
  8  1  1  0  0  0
  1  2  1  0  0  0
  1  7  1  0  0  0
  2  3  1  0  0  0
  3  4  1  0  0  0
  3 22  1  0  0  0
 22 23  2  0  0  0
 22 24  1  0  0  0
 24 25  1  0  0  0
 25 26  1  0  0  0
  4  5  1  0  0  0
  4 27  1  0  0  0
  5  6  2  0  0  0
  5  7  1  0  0  0
 27 28  1  0  0  0
 28 29  2  0  0  0
 28 33  1  0  0  0
 29 30  1  0  0  0
 30 31  1  0  0  0
 31 34  1  0  0  0
 31 32  1  0  0  0
 34 35  1  0  0  0
 34 39  2  0  0  0
 35 36  2  0  0  0
 36 37  1  0  0  0
 37 38  2  0  0  0
 38 39  1  0  0  0
 32 33  2  0  0  0
M  END
> <minimizedAffinity>
-10.64615

$$$$
data/FXA/cocry_dataset/1iqf_XMD_LIG.pdb


 39 43  0  0  0  0  0  0  0  0999 V2000
    1.8676    2.2634   19.4136 N   0  0  0  0  0  0  0  0  0  0  0  0
    2.3624    3.6517   19.5143 C   0  0  0  0  0  0  0  0  0  0  0  0
    3.7281    3.7324   18.7974 C   0  0  0  0  0  0  0  0  0  0  0  0
    3.6044    3.5120   17.3238 N   0  0  0  0  0  0  0  0  0  0  0  0
    2.6183    2.5270   16.9331 C   0  0  0  0  0  0  0  0  0  0  0  0
    2.5888    2.0386   15.7933 O   0  0  0  0  0  0  0  0  0  0  0  0
    1.5219    2.1183   17.9445 C   0  0  0  0  0  0  0  0  0  0  0  0
    2.8321    0.9411   20.0699 S   0  0  0  0  0  0  0  0  0  0  0  0
    2.4021   -0.3066   19.4832 O   0  0  0  0  0  0  0  0  0  0  0  0
    2.7300    1.0899   21.5143 O   0  0  0  0  0  0  0  0  0  0  0  0
    5.1841    0.6293   18.4729 C   0  0  0  0  0  0  0  0  0  0  0  0
    4.6132    1.1226   19.6784 C   0  0  0  0  0  0  0  0  0  0  0  0
    5.4957    1.4090   20.7318 C   0  0  0  0  0  0  0  0  0  0  0  0
    6.8747    1.2170   20.5956 C   0  0  0  0  0  0  0  0  0  0  0  0
    7.4509    0.7289   19.4053 C   0  0  0  0  0  0  0  0  0  0  0  0
    6.6092    0.4378   18.3122 C   0  0  0  0  0  0  0  0  0  0  0  0
    7.2326   -0.0715   17.1363 C   0  0  0  0  0  0  0  0  0  0  0  0
    8.6252   -0.2937   17.0587 C   0  0  0  0  0  0  0  0  0  0  0  0
    9.4265   -0.0112   18.1603 C   0  0  0  0  0  0  0  0  0  0  0  0
   11.1251   -0.3085   18.0924 Cl  0  0  0  0  0  0  0  0  0  0  0  0
    8.8490    0.5024   19.3195 C   0  0  0  0  0  0  0  0  0  0  0  0
    4.5118    4.5506   19.8152 C   0  0  0  0  0  0  0  0  0  0  0  0
    3.9200    4.9061   20.8397 O   0  0  0  0  0  0  0  0  0  0  0  0
    5.7259    5.0176   19.4840 O   0  0  0  0  0  0  0  0  0  0  0  0
    6.4384    5.4997   20.6514 C   0  0  0  0  0  0  0  0  0  0  0  0
    7.6099    4.5716   20.9348 C   0  0  0  0  0  0  0  0  0  0  0  0
    4.8901    3.2536   16.6255 C   0  0  0  0  0  0  0  0  0  0  0  0
    5.3202    4.2603   15.5677 C   0  0  0  0  0  0  0  0  0  0  0  0
    5.0760    5.5809   15.6110 C   0  0  0  0  0  0  0  0  0  0  0  0
    5.4655    6.5266   14.4986 C   0  0  0  0  0  0  0  0  0  0  0  0
    6.5767    5.9696   13.6952 N   0  0  0  0  0  0  0  0  0  0  0  0
    6.6431    4.5945   13.5498 C   0  0  0  0  0  0  0  0  0  0  0  0
    6.0333    3.7408   14.3944 C   0  0  0  0  0  0  0  0  0  0  0  0
    7.5642    6.8668   13.2218 C   0  0  0  0  0  0  0  0  0  0  0  0
    8.8966    6.7715   13.6486 C   0  0  0  0  0  0  0  0  0  0  0  0
    9.8222    7.7221   13.2389 C   0  0  0  0  0  0  0  0  0  0  0  0
    9.5297    8.7550   12.4259 N   0  0  0  0  0  0  0  0  0  0  0  0
    8.2563    8.8256   11.9942 C   0  0  0  0  0  0  0  0  0  0  0  0
    7.2648    7.9197   12.3481 C   0  0  0  0  0  0  0  0  0  0  0  0
 11 12  1  0  0  0
 11 16  2  0  0  0
 12 13  2  0  0  0
 12  8  1  0  0  0
 13 14  1  0  0  0
 14 15  2  0  0  0
 15 16  1  0  0  0
 15 21  1  0  0  0
 16 17  1  0  0  0
 17 18  2  0  0  0
 18 19  1  0  0  0
 19 20  1  0  0  0
 19 21  2  0  0  0
  8  9  2  0  0  0
  8 10  2  0  0  0
  8  1  1  0  0  0
  1  2  1  0  0  0
  1  7  1  0  0  0
  2  3  1  0  0  0
  3  4  1  0  0  0
  3 22  1  0  0  0
 22 23  2  0  0  0
 22 24  1  0  0  0
 24 25  1  0  0  0
 25 26  1  0  0  0
  4  5  1  0  0  0
  4 27  1  0  0  0
  5  6  2  0  0  0
  5  7  1  0  0  0
 27 28  1  0  0  0
 28 29  2  0  0  0
 28 33  1  0  0  0
 29 30  1  0  0  0
 30 31  1  0  0  0
 31 34  1  0  0  0
 31 32  1  0  0  0
 34 35  1  0  0  0
 34 39  2  0  0  0
 35 36  2  0  0  0
 36 37  1  0  0  0
 37 38  2  0  0  0
 38 39  1  0  0  0
 32 33  2  0  0  0
M  END
> <minimizedAffinity>
-10.62039

$$$$
