# created with PyMOL 2.5.0
@<TRIPOS>MOLECULE
data/FXA/cocry_dataset/1iqf_XMD_LIG.pdb
66 70 1                 
SMALL
USER_CHARGES
@<TRIPOS>ATOM
1	 H19	4.574	5.989	16.488	 H	1	UNK0	0.000	
2	 H04	0.699	2.812	17.773	 H	1	UNK0	0.000	
3	 H18	5.674	3.217	17.382	 H	1	UNK0	0.000	
4	 H22	7.213	4.185	12.716	 H	1	UNK0	0.000	
5	 H26	7.987	9.644	11.326	 H	1	UNK0	0.000	
6	 H23	6.069	2.668	14.207	 H	1	UNK0	0.000	
7	 H27	6.257	8.028	11.947	 H	1	UNK0	0.000	
8	 H25	10.847	7.626	13.597	 H	1	UNK0	0.000	
9	 H05	1.277	1.072	17.763	 H	1	UNK0	0.000	
10	 H09	6.614	-0.297	16.268	 H	1	UNK0	0.000	
11	 H03	4.574	3.102	18.523	 H	1	UNK0	0.000	
12	 H02	1.655	4.331	19.039	 H	1	UNK0	0.000	
13	 H13	6.807	6.508	20.465	 H	1	UNK0	0.000	
14	 H01	2.470	3.937	20.561	 H	1	UNK0	0.000	
15	 H08	7.525	1.453	21.438	 H	1	UNK0	0.000	
16	 H07	5.099	1.788	21.674	 H	1	UNK0	0.000	
17	 H24	9.205	5.954	14.300	 H	1	UNK0	0.000	
18	 H06	4.524	0.387	17.640	 H	1	UNK0	0.000	
19	 H12	5.768	5.518	21.510	 H	1	UNK0	0.000	
20	 H11	9.482	0.734	20.176	 H	1	UNK0	0.000	
21	 H10	9.069	-0.684	16.143	 H	1	UNK0	0.000	
22	 H21	4.604	6.691	13.851	 H	1	UNK0	0.000	
23	 H16	7.908	4.071	20.014	 H	1	UNK0	0.000	
24	 H15	7.314	3.828	21.674	 H	1	UNK0	0.000	
25	 H14	8.448	5.153	21.320	 H	1	UNK0	0.000	
26	 H17	4.732	2.323	16.080	 H	1	UNK0	0.000	
27	 H20	5.794	7.467	14.941	 H	1	UNK0	0.000	
28	   N	1.868	2.263	19.414	N.3	1	UNK0	0.000	
29	   C	2.362	3.652	19.514	C.3	1	UNK0	0.000	
30	   C	3.728	3.732	18.797	C.3	1	UNK0	0.000	
31	   N	3.604	3.512	17.324	N.pl3	1	UNK0	0.000	
32	   C	2.618	2.527	16.933	C.2	1	UNK0	0.000	
33	   O	2.589	2.039	15.793	O.2	1	UNK0	0.000	
34	   C	1.522	2.118	17.944	C.3	1	UNK0	0.000	
35	   S	2.832	0.941	20.070	S.o2	1	UNK0	0.000	
36	   O	2.402	-0.307	19.483	O.2	1	UNK0	0.000	
37	   O	2.730	1.090	21.514	O.2	1	UNK0	0.000	
38	   C	5.184	0.629	18.473	C.2	1	UNK0	0.000	
39	   C	4.613	1.123	19.678	C.2	1	UNK0	0.000	
40	   C	5.496	1.409	20.732	C.2	1	UNK0	0.000	
41	   C	6.875	1.217	20.596	C.2	1	UNK0	0.000	
42	   C	7.451	0.729	19.405	C.2	1	UNK0	0.000	
43	   C	6.609	0.438	18.312	C.2	1	UNK0	0.000	
44	   C	7.233	-0.072	17.136	C.2	1	UNK0	0.000	
45	   C	8.625	-0.294	17.059	C.2	1	UNK0	0.000	
46	   C	9.427	-0.011	18.160	C.2	1	UNK0	0.000	
47	  Cl	11.125	-0.308	18.092	Cl	1	UNK0	0.000	
48	   C	8.849	0.502	19.319	C.2	1	UNK0	0.000	
49	   C	4.512	4.551	19.815	C.2	1	UNK0	0.000	
50	   O	3.920	4.906	20.840	O.co2	1	UNK0	0.000	
51	   O	5.726	5.018	19.484	O.3	1	UNK0	0.000	
52	   C	6.438	5.500	20.651	C.3	1	UNK0	0.000	
53	   C	7.610	4.572	20.935	C.3	1	UNK0	0.000	
54	   C	4.890	3.254	16.625	C.3	1	UNK0	0.000	
55	   C	5.320	4.260	15.568	C.2	1	UNK0	0.000	
56	   C	5.076	5.581	15.611	C.2	1	UNK0	0.000	
57	   C	5.465	6.527	14.499	C.3	1	UNK0	0.000	
58	   N	6.577	5.970	13.695	N.pl3	1	UNK0	0.000	
59	   C	6.643	4.595	13.550	C.2	1	UNK0	0.000	
60	   C	6.033	3.741	14.394	C.2	1	UNK0	0.000	
61	   C	7.564	6.867	13.222	C.2	1	UNK0	0.000	
62	   C	8.897	6.772	13.649	C.2	1	UNK0	0.000	
63	   C	9.822	7.722	13.239	C.2	1	UNK0	0.000	
64	   N	9.530	8.755	12.426	N.2	1	UNK0	0.000	
65	   C	8.256	8.826	11.994	C.2	1	UNK0	0.000	
66	   C	7.265	7.920	12.348	C.2	1	UNK0	0.000	
@<TRIPOS>BOND
1 28 29 1
2 28 34 1
3 12 29 1
4 14 29 1
5 29 30 1
6 11 30 1
7 30 31 1
8 30 49 1
9 31 32 1
10 31 54 1
11 32 33 2
12 32 34 1
13 2 34 1
14 9 34 1
15 28 35 1
16 35 36 2
17 35 37 2
18 18 38 1
19 38 39 1
20 38 43 2
21 35 39 1
22 39 40 2
23 16 40 1
24 40 41 1
25 15 41 1
26 41 42 2
27 42 43 1
28 42 48 1
29 43 44 1
30 10 44 1
31 44 45 2
32 21 45 1
33 45 46 1
34 46 47 1
35 46 48 2
36 20 48 1
37 49 50 2
38 49 51 1
39 51 52 1
40 13 52 1
41 19 52 1
42 52 53 1
43 23 53 1
44 24 53 1
45 25 53 1
46 3 54 1
47 26 54 1
48 54 55 1
49 55 56 2
50 55 60 1
51 1 56 1
52 56 57 1
53 22 57 1
54 27 57 1
55 57 58 1
56 58 59 1
57 58 61 1
58 4 59 1
59 59 60 2
60 6 60 1
61 61 62 1
62 61 66 2
63 17 62 1
64 62 63 2
65 8 63 1
66 63 64 1
67 64 65 2
68 5 65 1
69 65 66 1
70 7 66 1
@<TRIPOS>SUBSTRUCTURE
1	UNK0	1	GROUP	1 ****	UNK
