# created with PyMOL 2.5.0
@<TRIPOS>MOLECULE
MOL
50 52 1                 
SMALL
USER_CHARGES
@<TRIPOS>ATOM
1	 H21	4.217	8.621	20.889	 H	1	UNK0	0.000	
2	 H22	4.867	9.121	22.469	 H	1	UNK0	0.000	
3	 H19	3.433	6.404	21.911	 H	1	UNK0	0.000	
4	 H08	5.224	15.497	27.176	 H	1	UNK0	0.000	
5	 H20	5.674	7.834	21.541	 H	1	UNK0	0.000	
6	 H01	-1.890	11.112	27.667	 H	1	UNK0	0.000	
7	 H05	3.494	10.321	22.726	 H	1	UNK0	0.000	
8	 H04	2.309	11.690	22.799	 H	1	UNK0	0.000	
9	 H11	7.326	14.616	26.827	 H	1	UNK0	0.000	
10	 H03	0.766	7.435	28.690	 H	1	UNK0	0.000	
11	 H09	4.620	17.000	26.438	 H	1	UNK0	0.000	
12	 H02	-1.145	11.874	26.280	 H	1	UNK0	0.000	
13	 H10	8.934	14.927	26.133	 H	1	UNK0	0.000	
14	 H07	3.559	15.576	26.551	 H	1	UNK0	0.000	
15	 H14	7.361	9.884	23.920	 H	1	UNK0	0.000	
16	 H13	9.107	10.225	23.898	 H	1	UNK0	0.000	
17	 H12	8.314	13.262	26.225	 H	1	UNK0	0.000	
18	 H15	8.169	10.294	22.388	 H	1	UNK0	0.000	
19	 H18	3.027	6.542	24.485	 H	1	UNK0	0.000	
20	 H17	4.624	9.190	24.162	 H	1	UNK0	0.000	
21	 H16	4.461	8.264	25.677	 H	1	UNK0	0.000	
22	 H06	5.599	10.624	23.127	 H	1	UNK0	0.000	
23	  C1	2.349	10.464	24.503	C.2	1	UNK0	0.000	
24	  N1	1.249	10.939	25.079	N.2	1	UNK0	0.000	
25	  C2	0.932	10.113	26.053	C.2	1	UNK0	0.000	
26	  C3	-0.106	10.116	26.976	C.2	1	UNK0	0.000	
27	  N2	-1.156	11.141	26.974	N.pl3	1	UNK0	0.000	
28	  C4	1.902	9.124	26.105	C.2	1	UNK0	0.000	
29	  N3	1.849	8.157	27.043	N.2	1	UNK0	0.000	
30	  C5	0.827	8.206	27.922	C.2	1	UNK0	0.000	
31	  N4	-0.126	9.164	27.897	N.2	1	UNK0	0.000	
32	  N5	2.766	9.365	25.122	N.pl3	1	UNK0	0.000	
33	  C6	3.055	11.107	23.341	C.3	1	UNK0	0.000	
34	  C7	5.076	14.132	24.634	C.2	1	UNK0	0.000	
35	  C8	3.956	13.354	24.314	C.2	1	UNK0	0.000	
36	  C9	6.352	13.637	24.408	C.2	1	UNK0	0.000	
37	 C10	6.550	12.386	23.872	C.2	1	UNK0	0.000	
38	 C11	5.447	11.616	23.551	C.2	1	UNK0	0.000	
39	 C12	4.160	12.071	23.752	C.2	1	UNK0	0.000	
40	 Cl1	2.355	14.005	24.580	Cl	1	UNK0	0.000	
41	 C13	4.585	15.911	26.396	C.3	1	UNK0	0.000	
42	  O1	5.036	15.474	25.136	O.3	1	UNK0	0.000	
43	  O2	7.452	14.454	24.763	O.3	1	UNK0	0.000	
44	 C14	8.042	14.306	26.066	C.3	1	UNK0	0.000	
45	  O3	7.876	11.882	23.692	O.3	1	UNK0	0.000	
46	 C15	8.144	10.487	23.460	C.3	1	UNK0	0.000	
47	 C16	3.953	8.578	24.765	C.3	1	UNK0	0.000	
48	 C17	3.545	7.355	23.977	C.2	1	UNK0	0.000	
49	 C18	3.843	7.236	22.484	C.2	1	UNK0	0.000	
50	 C19	4.711	8.277	21.798	C.3	1	UNK0	0.000	
@<TRIPOS>BOND
1 23 24 2
2 23 32 1
3 23 33 1
4 24 25 1
5 25 26 2
6 25 28 1
7 26 27 1
8 26 31 1
9 6 27 1
10 12 27 1
11 28 29 2
12 28 32 1
13 29 30 1
14 10 30 1
15 30 31 2
16 32 47 1
17 7 33 1
18 8 33 1
19 33 39 1
20 34 35 2
21 34 36 1
22 34 42 1
23 35 39 1
24 35 40 1
25 36 37 2
26 36 43 1
27 37 38 1
28 37 45 1
29 22 38 1
30 38 39 2
31 4 41 1
32 11 41 1
33 14 41 1
34 41 42 1
35 43 44 1
36 9 44 1
37 13 44 1
38 17 44 1
39 45 46 1
40 15 46 1
41 16 46 1
42 18 46 1
43 20 47 1
44 21 47 1
45 47 48 1
46 19 48 1
47 48 49 2
48 3 49 1
49 49 50 1
50 1 50 1
51 2 50 1
52 5 50 1
@<TRIPOS>SUBSTRUCTURE
1	UNK0	1	GROUP	1 ****	UNK
