# created with PyMOL 2.5.0
@<TRIPOS>MOLECULE
MOL
30 32 1                 
SMALL
USER_CHARGES
@<TRIPOS>ATOM
1	  C1	4.970	12.011	23.707	C.2	1	UNK0	0.000	
2	  N1	4.469	13.018	24.363	N.2	1	UNK0	0.000	
3	  C2	5.604	13.883	24.633	C.2	1	UNK0	0.000	
4	  C3	5.681	15.075	25.259	C.2	1	UNK0	0.000	
5	  N2	4.588	15.773	25.898	N.pl3	1	UNK0	0.000	
6	  C4	6.736	13.387	24.090	C.2	1	UNK0	0.000	
7	  N3	7.889	13.983	24.112	N.2	1	UNK0	0.000	
8	  C5	7.939	15.141	24.736	C.2	1	UNK0	0.000	
9	  N4	6.884	15.632	25.292	N.2	1	UNK0	0.000	
10	  N5	6.398	12.170	23.435	N.pl3	1	UNK0	0.000	
11	  F1	9.091	15.843	24.824	 F	1	UNK0	0.000	
12	  C6	4.212	10.813	23.211	C.3	1	UNK0	0.000	
13	 Cl1	3.731	8.104	24.936	Cl	1	UNK0	0.000	
14	  C7	2.595	9.434	24.670	C.2	1	UNK0	0.000	
15	  C8	1.317	9.391	25.190	C.2	1	UNK0	0.000	
16	  C9	0.405	10.374	24.992	C.2	1	UNK0	0.000	
17	 C10	0.658	11.458	24.261	C.2	1	UNK0	0.000	
18	 C11	1.916	11.580	23.691	C.2	1	UNK0	0.000	
19	 C12	2.876	10.584	23.880	C.2	1	UNK0	0.000	
20	  O1	0.738	8.397	25.973	O.3	1	UNK0	0.000	
21	 C13	0.310	7.155	25.520	C.3	1	UNK0	0.000	
22	  O2	-0.837	10.215	25.608	O.3	1	UNK0	0.000	
23	 C14	-1.011	10.693	26.935	C.3	1	UNK0	0.000	
24	  O3	-0.370	12.422	24.209	O.3	1	UNK0	0.000	
25	 C15	-1.219	12.364	23.048	C.3	1	UNK0	0.000	
26	 C16	7.322	11.233	22.772	C.3	1	UNK0	0.000	
27	 C17	7.921	10.271	23.782	C.3	1	UNK0	0.000	
28	 C18	8.104	8.835	23.372	C.3	1	UNK0	0.000	
29	 C19	7.585	7.701	24.270	C.1	1	UNK0	0.000	
30	 C20	7.180	6.796	24.908	C.1	1	UNK0	0.000	
@<TRIPOS>BOND
1 1 2 2
2 1 10 1
3 1 12 1
4 2 3 1
5 3 4 1
6 3 6 2
7 4 5 1
8 4 9 2
9 6 7 1
10 6 10 1
11 7 8 2
12 8 9 1
13 8 11 1
14 10 26 1
15 12 19 1
16 13 14 1
17 14 15 1
18 14 19 2
19 15 16 2
20 15 20 1
21 16 17 1
22 16 22 1
23 17 18 2
24 17 24 1
25 18 19 1
26 20 21 1
27 22 23 1
28 24 25 1
29 26 27 1
30 27 28 1
31 28 29 1
32 29 30 3
@<TRIPOS>SUBSTRUCTURE
1	UNK0	1	GROUP	1 ****	UNK
