# created with PyMOL 2.5.0
@<TRIPOS>MOLECULE
MOL
27 29 1                 
SMALL
USER_CHARGES
@<TRIPOS>ATOM
1	  C1	4.956	12.176	23.784	C.2	1	UNK0	0.000	
2	  N1	4.491	13.229	24.465	N.2	1	UNK0	0.000	
3	  C2	5.611	13.967	24.640	C.2	1	UNK0	0.000	
4	  C3	5.911	15.211	25.333	C.2	1	UNK0	0.000	
5	  N2	4.938	15.892	25.966	N.pl3	1	UNK0	0.000	
6	  C4	6.753	13.288	24.039	C.2	1	UNK0	0.000	
7	  N3	7.988	13.818	24.076	N.2	1	UNK0	0.000	
8	  C5	8.177	15.011	24.684	C.2	1	UNK0	0.000	
9	  N4	7.170	15.692	25.288	N.2	1	UNK0	0.000	
10	  N5	6.274	12.185	23.500	N.pl3	1	UNK0	0.000	
11	  C6	4.038	11.095	23.268	C.3	1	UNK0	0.000	
12	  C7	0.468	11.226	24.611	C.2	1	UNK0	0.000	
13	  C8	1.663	11.481	23.909	C.2	1	UNK0	0.000	
14	  C9	0.458	10.116	25.541	C.2	1	UNK0	0.000	
15	 C10	1.673	9.338	25.722	C.2	1	UNK0	0.000	
16	 C11	2.846	9.660	25.011	C.2	1	UNK0	0.000	
17	 C12	2.821	10.744	24.104	C.2	1	UNK0	0.000	
18	 C13	-1.505	11.874	23.359	C.3	1	UNK0	0.000	
19	  O1	-0.661	12.013	24.529	O.3	1	UNK0	0.000	
20	  O2	-0.647	9.799	26.253	O.3	1	UNK0	0.000	
21	 C14	-0.870	10.541	27.468	C.3	1	UNK0	0.000	
22	  O3	1.514	8.271	26.585	O.3	1	UNK0	0.000	
23	 C15	2.294	8.140	27.740	C.3	1	UNK0	0.000	
24	 C16	7.103	11.177	22.837	C.3	1	UNK0	0.000	
25	 C17	7.586	10.242	23.944	C.3	1	UNK0	0.000	
26	 C18	6.991	8.847	23.893	C.3	1	UNK0	0.000	
27	 C19	8.177	7.874	23.896	C.3	1	UNK0	0.000	
@<TRIPOS>BOND
1 1 2 2
2 1 10 1
3 1 11 1
4 2 3 1
5 3 4 2
6 3 6 1
7 4 5 1
8 4 9 1
9 6 7 2
10 6 10 1
11 7 8 1
12 8 9 2
13 10 24 1
14 11 17 1
15 12 13 2
16 12 14 1
17 12 19 1
18 13 17 1
19 14 15 2
20 14 20 1
21 15 16 1
22 15 22 1
23 16 17 2
24 18 19 1
25 20 21 1
26 22 23 1
27 24 25 1
28 25 26 1
29 26 27 1
@<TRIPOS>SUBSTRUCTURE
1	UNK0	1	GROUP	1 ****	UNK
