# created with PyMOL 2.5.0
@<TRIPOS>MOLECULE
MOL
27 29 1                 
SMALL
USER_CHARGES
@<TRIPOS>ATOM
1	  C1	4.945	12.236	23.789	C.2	1	UNK0	0.000	
2	  N1	4.526	13.311	24.465	N.2	1	UNK0	0.000	
3	  C2	5.678	13.999	24.642	C.2	1	UNK0	0.000	
4	  C3	6.032	15.229	25.333	C.2	1	UNK0	0.000	
5	  N2	5.089	15.956	25.961	N.pl3	1	UNK0	0.000	
6	  C4	6.789	13.267	24.046	C.2	1	UNK0	0.000	
7	  N3	8.047	13.741	24.085	N.2	1	UNK0	0.000	
8	  C5	8.288	14.926	24.691	C.2	1	UNK0	0.000	
9	  N4	7.312	15.653	25.290	N.2	1	UNK0	0.000	
10	  N5	6.263	12.185	23.509	N.pl3	1	UNK0	0.000	
11	  C6	3.981	11.197	23.273	C.3	1	UNK0	0.000	
12	  C7	2.773	8.768	25.959	C.2	1	UNK0	0.000	
13	  C8	3.537	9.446	24.986	C.2	1	UNK0	0.000	
14	  C9	1.446	9.272	26.241	C.2	1	UNK0	0.000	
15	 C10	0.959	10.425	25.503	C.2	1	UNK0	0.000	
16	 C11	1.759	11.043	24.523	C.2	1	UNK0	0.000	
17	 C12	3.055	10.533	24.276	C.2	1	UNK0	0.000	
18	 C13	3.814	6.584	25.796	C.3	1	UNK0	0.000	
19	  O1	3.179	7.613	26.594	O.3	1	UNK0	0.000	
20	  O2	0.648	8.684	27.161	O.3	1	UNK0	0.000	
21	 C14	0.033	7.438	26.784	C.3	1	UNK0	0.000	
22	  O3	-0.292	10.844	25.912	O.3	1	UNK0	0.000	
23	 C15	-1.378	10.884	25.027	C.3	1	UNK0	0.000	
24	 C16	7.047	11.139	22.852	C.3	1	UNK0	0.000	
25	 C17	7.400	10.133	23.945	C.3	1	UNK0	0.000	
26	 C18	6.963	8.708	23.654	C.3	1	UNK0	0.000	
27	 C19	7.960	7.798	24.381	C.3	1	UNK0	0.000	
@<TRIPOS>BOND
1 1 2 2
2 1 10 1
3 1 11 1
4 2 3 1
5 3 4 2
6 3 6 1
7 4 5 1
8 4 9 1
9 6 7 2
10 6 10 1
11 7 8 1
12 8 9 2
13 10 24 1
14 11 17 1
15 12 13 2
16 12 14 1
17 12 19 1
18 13 17 1
19 14 15 2
20 14 20 1
21 15 16 1
22 15 22 1
23 16 17 2
24 18 19 1
25 20 21 1
26 22 23 1
27 24 25 1
28 25 26 1
29 26 27 1
@<TRIPOS>SUBSTRUCTURE
1	UNK0	1	GROUP	1 ****	UNK
