# created with PyMOL 2.5.0
@<TRIPOS>MOLECULE
MOL
29 31 1                 
SMALL
USER_CHARGES
@<TRIPOS>ATOM
1	  C1	5.023	12.017	23.673	C.2	1	UNK0	0.000	
2	  N1	4.495	13.043	24.353	N.2	1	UNK0	0.000	
3	  C2	5.493	13.876	24.638	C.2	1	UNK0	0.000	
4	  C3	5.608	15.066	25.307	C.2	1	UNK0	0.000	
5	  N2	4.480	15.726	25.916	N.pl3	1	UNK0	0.000	
6	  C4	6.621	13.356	24.086	C.2	1	UNK0	0.000	
7	  N3	7.838	13.897	24.156	N.2	1	UNK0	0.000	
8	  C5	7.890	15.074	24.806	C.2	1	UNK0	0.000	
9	  N4	6.804	15.646	25.357	N.2	1	UNK0	0.000	
10	  N5	6.362	12.208	23.497	N.pl3	1	UNK0	0.000	
11	  C6	4.215	10.847	23.127	C.3	1	UNK0	0.000	
12	 Cl1	3.884	8.255	24.959	Cl	1	UNK0	0.000	
13	  C7	2.664	9.515	24.730	C.2	1	UNK0	0.000	
14	  C8	1.407	9.409	25.352	C.2	1	UNK0	0.000	
15	  C9	0.420	10.348	25.163	C.2	1	UNK0	0.000	
16	 C10	0.626	11.431	24.340	C.2	1	UNK0	0.000	
17	 C11	1.864	11.574	23.697	C.2	1	UNK0	0.000	
18	 C12	2.897	10.630	23.887	C.2	1	UNK0	0.000	
19	  O1	0.896	8.393	26.210	O.3	1	UNK0	0.000	
20	 C13	0.767	7.235	26.830	C.3	1	UNK0	0.000	
21	  O2	-0.807	10.126	25.875	O.3	1	UNK0	0.000	
22	 C14	-1.029	10.719	27.187	C.3	1	UNK0	0.000	
23	  O3	-0.426	12.321	24.214	O.3	1	UNK0	0.000	
24	 C15	-1.416	12.211	23.168	C.3	1	UNK0	0.000	
25	 C16	7.318	11.333	22.818	C.3	1	UNK0	0.000	
26	 C17	7.939	10.341	23.808	C.3	1	UNK0	0.000	
27	 C18	8.024	8.941	23.214	C.3	1	UNK0	0.000	
28	 C19	7.682	7.811	24.195	C.1	1	UNK0	0.000	
29	 C20	7.351	6.914	24.894	C.1	1	UNK0	0.000	
@<TRIPOS>BOND
1 1 2 2
2 1 10 1
3 1 11 1
4 2 3 1
5 3 4 2
6 3 6 1
7 4 5 1
8 4 9 1
9 6 7 2
10 6 10 1
11 7 8 1
12 8 9 2
13 10 25 1
14 11 18 1
15 12 13 1
16 13 14 1
17 13 18 2
18 14 15 2
19 14 19 1
20 15 16 1
21 15 21 1
22 16 17 2
23 16 23 1
24 17 18 1
25 19 20 1
26 21 22 1
27 23 24 1
28 25 26 1
29 26 27 1
30 27 28 1
31 28 29 3
@<TRIPOS>SUBSTRUCTURE
1	UNK0	1	GROUP	1 ****	UNK
