# created with PyMOL 2.5.0
@<TRIPOS>MOLECULE
MOL
28 30 1                 
SMALL
USER_CHARGES
@<TRIPOS>ATOM
1	  C1	5.067	12.098	23.682	C.2	1	UNK0	0.000	
2	  N1	4.662	13.171	24.354	N.2	1	UNK0	0.000	
3	  C2	5.731	13.896	24.610	C.2	1	UNK0	0.000	
4	  C3	5.899	15.106	25.271	C.2	1	UNK0	0.000	
5	  N2	4.782	15.821	25.897	N.pl3	1	UNK0	0.000	
6	  C4	6.821	13.266	24.030	C.2	1	UNK0	0.000	
7	  N3	8.052	13.813	24.103	N.2	1	UNK0	0.000	
8	  C5	8.164	14.993	24.748	C.2	1	UNK0	0.000	
9	  N4	7.116	15.630	25.314	N.2	1	UNK0	0.000	
10	  N5	6.377	12.145	23.467	N.pl3	1	UNK0	0.000	
11	  C6	4.161	11.003	23.189	C.3	1	UNK0	0.000	
12	  C7	0.966	10.651	25.328	C.2	1	UNK0	0.000	
13	  C8	1.823	11.148	24.338	C.2	1	UNK0	0.000	
14	  C9	1.381	9.609	26.145	C.2	1	UNK0	0.000	
15	 C10	2.627	9.044	26.007	C.2	1	UNK0	0.000	
16	 C11	3.478	9.535	25.034	C.2	1	UNK0	0.000	
17	 C12	3.109	10.574	24.204	C.2	1	UNK0	0.000	
18	 Cl1	1.294	12.479	23.336	Cl	1	UNK0	0.000	
19	 C13	-1.536	10.965	24.940	C.3	1	UNK0	0.000	
20	  O1	-0.332	11.173	25.639	O.3	1	UNK0	0.000	
21	  O2	0.474	9.130	27.120	O.3	1	UNK0	0.000	
22	 C14	-0.128	7.837	26.939	C.3	1	UNK0	0.000	
23	  O3	3.013	7.941	26.832	O.3	1	UNK0	0.000	
24	 C15	3.507	6.705	26.283	C.3	1	UNK0	0.000	
25	 C16	7.165	11.135	22.749	C.3	1	UNK0	0.000	
26	 C17	8.037	10.373	23.720	C.2	1	UNK0	0.000	
27	 C18	7.720	8.932	24.111	C.2	1	UNK0	0.000	
28	 C19	6.613	8.177	23.395	C.3	1	UNK0	0.000	
@<TRIPOS>BOND
1 1 2 2
2 1 10 1
3 1 11 1
4 2 3 1
5 3 4 2
6 3 6 1
7 4 5 1
8 4 9 1
9 6 7 2
10 6 10 1
11 7 8 1
12 8 9 2
13 10 25 1
14 11 17 1
15 12 13 2
16 12 14 1
17 12 20 1
18 13 17 1
19 13 18 1
20 14 15 2
21 14 21 1
22 15 16 1
23 15 23 1
24 16 17 2
25 19 20 1
26 21 22 1
27 23 24 1
28 25 26 1
29 26 27 2
30 27 28 1
@<TRIPOS>SUBSTRUCTURE
1	UNK0	1	GROUP	1 ****	UNK
