# created with PyMOL 2.5.0
@<TRIPOS>MOLECULE
MOL
50 52 1                 
SMALL
USER_CHARGES
@<TRIPOS>ATOM
1	 H21	6.928	7.832	22.448	 H	1	UNK0	0.000	
2	 H22	6.275	7.335	24.027	 H	1	UNK0	0.000	
3	 H19	8.292	8.402	24.913	 H	1	UNK0	0.000	
4	 H08	0.970	7.881	26.096	 H	1	UNK0	0.000	
5	 H20	5.757	8.871	23.294	 H	1	UNK0	0.000	
6	 H01	5.134	16.741	26.333	 H	1	UNK0	0.000	
7	 H05	4.162	11.063	22.168	 H	1	UNK0	0.000	
8	 H04	4.692	10.062	23.582	 H	1	UNK0	0.000	
9	 H11	-1.792	10.480	23.625	 H	1	UNK0	0.000	
10	 H03	9.297	15.450	24.714	 H	1	UNK0	0.000	
11	 H09	0.120	8.151	27.637	 H	1	UNK0	0.000	
12	 H02	4.023	15.470	25.874	 H	1	UNK0	0.000	
13	 H10	-2.977	11.526	24.443	 H	1	UNK0	0.000	
14	 H07	-0.767	8.267	26.099	 H	1	UNK0	0.000	
15	 H14	0.268	13.156	20.987	 H	1	UNK0	0.000	
16	 H13	-1.417	13.541	21.408	 H	1	UNK0	0.000	
17	 H12	-2.451	10.009	25.210	 H	1	UNK0	0.000	
18	 H15	-0.860	11.851	21.428	 H	1	UNK0	0.000	
19	 H18	8.996	10.790	24.133	 H	1	UNK0	0.000	
20	 H17	6.560	10.438	22.240	 H	1	UNK0	0.000	
21	 H16	7.893	11.601	22.015	 H	1	UNK0	0.000	
22	 H06	2.327	12.496	22.350	 H	1	UNK0	0.000	
23	  C1	5.176	12.101	23.712	C.2	1	UNK0	0.000	
24	  N1	4.791	13.185	24.378	N.2	1	UNK0	0.000	
25	  C2	5.869	13.907	24.601	C.2	1	UNK0	0.000	
26	  C3	6.057	15.125	25.242	C.2	1	UNK0	0.000	
27	  N2	4.957	15.855	25.883	N.pl3	1	UNK0	0.000	
28	  C4	6.943	13.264	24.006	C.2	1	UNK0	0.000	
29	  N3	8.177	13.806	24.045	N.2	1	UNK0	0.000	
30	  C5	8.309	14.993	24.673	C.2	1	UNK0	0.000	
31	  N4	7.276	15.643	25.253	N.2	1	UNK0	0.000	
32	  N5	6.481	12.138	23.468	N.pl3	1	UNK0	0.000	
33	  C6	4.254	11.005	23.253	C.3	1	UNK0	0.000	
34	  C7	1.103	10.535	25.434	C.2	1	UNK0	0.000	
35	  C8	2.422	10.365	24.998	C.2	1	UNK0	0.000	
36	  C9	0.255	11.401	24.757	C.2	1	UNK0	0.000	
37	 C10	0.682	12.106	23.657	C.2	1	UNK0	0.000	
38	 C11	1.983	11.938	23.221	C.2	1	UNK0	0.000	
39	 C12	2.858	11.083	23.859	C.2	1	UNK0	0.000	
40	 Cl1	3.468	9.250	25.847	Cl	1	UNK0	0.000	
41	 C13	0.187	8.454	26.592	C.3	1	UNK0	0.000	
42	  O1	0.491	9.827	26.520	O.3	1	UNK0	0.000	
43	  O2	-1.065	11.551	25.245	O.3	1	UNK0	0.000	
44	 C14	-2.136	10.849	24.591	C.3	1	UNK0	0.000	
45	  O3	-0.198	13.026	23.006	O.3	1	UNK0	0.000	
46	 C15	-0.574	12.885	21.623	C.3	1	UNK0	0.000	
47	 C16	7.248	11.115	22.747	C.3	1	UNK0	0.000	
48	 C17	8.101	10.329	23.716	C.2	1	UNK0	0.000	
49	 C18	7.735	8.903	24.122	C.2	1	UNK0	0.000	
50	 C19	6.593	8.184	23.424	C.3	1	UNK0	0.000	
@<TRIPOS>BOND
1 23 24 2
2 23 32 1
3 23 33 1
4 24 25 1
5 25 26 2
6 25 28 1
7 26 27 1
8 26 31 1
9 6 27 1
10 12 27 1
11 28 29 2
12 28 32 1
13 29 30 1
14 10 30 1
15 30 31 2
16 32 47 1
17 7 33 1
18 8 33 1
19 33 39 1
20 34 35 2
21 34 36 1
22 34 42 1
23 35 39 1
24 35 40 1
25 36 37 2
26 36 43 1
27 37 38 1
28 37 45 1
29 22 38 1
30 38 39 2
31 4 41 1
32 11 41 1
33 14 41 1
34 41 42 1
35 43 44 1
36 9 44 1
37 13 44 1
38 17 44 1
39 45 46 1
40 15 46 1
41 16 46 1
42 18 46 1
43 20 47 1
44 21 47 1
45 47 48 1
46 19 48 1
47 48 49 2
48 3 49 1
49 49 50 1
50 1 50 1
51 2 50 1
52 5 50 1
@<TRIPOS>SUBSTRUCTURE
1	UNK0	1	GROUP	1 ****	UNK
