# created with PyMOL 2.5.0
@<TRIPOS>MOLECULE
MOL
27 29 1                 
SMALL
USER_CHARGES
@<TRIPOS>ATOM
1	  C1	4.991	12.104	23.744	C.2	1	UNK0	0.000	
2	  N1	4.492	13.144	24.420	N.2	1	UNK0	0.000	
3	  C2	5.591	13.907	24.614	C.2	1	UNK0	0.000	
4	  C3	5.852	15.155	25.316	C.2	1	UNK0	0.000	
5	  N2	4.853	15.812	25.935	N.pl3	1	UNK0	0.000	
6	  C4	6.758	13.256	24.030	C.2	1	UNK0	0.000	
7	  N3	7.980	13.814	24.087	N.2	1	UNK0	0.000	
8	  C5	8.132	15.009	24.702	C.2	1	UNK0	0.000	
9	  N4	7.100	15.665	25.292	N.2	1	UNK0	0.000	
10	  N5	6.313	12.144	23.481	N.pl3	1	UNK0	0.000	
11	  C6	4.107	11.004	23.211	C.3	1	UNK0	0.000	
12	  C7	1.490	9.482	25.537	C.2	1	UNK0	0.000	
13	  C8	2.676	9.762	24.827	C.2	1	UNK0	0.000	
14	  C9	0.344	10.332	25.293	C.2	1	UNK0	0.000	
15	 C10	0.460	11.409	24.324	C.2	1	UNK0	0.000	
16	 C11	1.664	11.622	23.625	C.2	1	UNK0	0.000	
17	 C12	2.768	10.781	23.892	C.2	1	UNK0	0.000	
18	 C13	2.253	8.268	27.493	C.3	1	UNK0	0.000	
19	  O1	1.332	8.404	26.382	O.3	1	UNK0	0.000	
20	  O2	-0.830	10.136	25.933	O.3	1	UNK0	0.000	
21	 C14	-0.920	10.619	27.287	C.3	1	UNK0	0.000	
22	  O3	-0.680	12.184	24.232	O.3	1	UNK0	0.000	
23	 C15	-1.543	12.091	23.133	C.3	1	UNK0	0.000	
24	 C16	7.175	11.158	22.829	C.3	1	UNK0	0.000	
25	 C17	7.639	10.212	23.936	C.3	1	UNK0	0.000	
26	 C18	7.031	8.823	23.872	C.3	1	UNK0	0.000	
27	 C19	8.207	7.839	23.912	C.3	1	UNK0	0.000	
@<TRIPOS>BOND
1 1 2 2
2 1 10 1
3 1 11 1
4 2 3 1
5 3 4 2
6 3 6 1
7 4 5 1
8 4 9 1
9 6 7 2
10 6 10 1
11 7 8 1
12 8 9 2
13 10 24 1
14 11 17 1
15 12 13 2
16 12 14 1
17 12 19 1
18 13 17 1
19 14 15 2
20 14 20 1
21 15 16 1
22 15 22 1
23 16 17 2
24 18 19 1
25 20 21 1
26 22 23 1
27 24 25 1
28 25 26 1
29 26 27 1
@<TRIPOS>SUBSTRUCTURE
1	UNK0	1	GROUP	1 ****	UNK
