# created with PyMOL 2.5.0
@<TRIPOS>MOLECULE
MOL
44 45 1                 
SMALL
USER_CHARGES
@<TRIPOS>ATOM
1	  C1	3.177	7.753	22.543	C.3	1	UNK0	0.000	
2	  C2	2.812	6.794	23.748	C.3	1	UNK0	0.000	
3	  C3	1.365	6.241	23.991	C.3	1	UNK0	0.000	
4	  C4	0.372	7.350	23.562	C.3	1	UNK0	0.000	
5	  C5	1.085	5.677	25.538	C.3	1	UNK0	0.000	
6	  C6	1.374	6.708	26.680	C.2	1	UNK0	0.000	
7	  C7	2.548	6.916	27.438	C.2	1	UNK0	0.000	
8	  C8	2.681	7.988	28.499	C.2	1	UNK0	0.000	
9	  O1	3.757	8.101	29.092	O.2	1	UNK0	0.000	
10	  C9	1.503	8.867	28.792	C.2	1	UNK0	0.000	
11	 C10	0.313	8.699	28.107	C.2	1	UNK0	0.000	
12	  N1	-0.900	9.432	28.281	N.pl3	1	UNK0	0.000	
13	 C11	-1.850	10.181	27.480	C.2	1	UNK0	0.000	
14	  O2	-2.737	10.616	28.039	O.2	1	UNK0	0.000	
15	 C12	-1.605	10.316	25.961	C.2	1	UNK0	0.000	
16	 C13	-2.754	9.899	25.074	C.3	1	UNK0	0.000	
17	 C14	-0.380	10.776	25.530	C.2	1	UNK0	0.000	
18	 C15	0.111	10.971	24.160	C.2	1	UNK0	0.000	
19	 C16	1.100	11.781	23.802	C.2	1	UNK0	0.000	
20	 C17	1.915	12.666	24.704	C.3	1	UNK0	0.000	
21	 C18	3.470	12.465	24.543	C.3	1	UNK0	0.000	
22	 C19	4.052	10.956	24.784	C.2	1	UNK0	0.000	
23	 C20	3.926	10.397	26.197	C.3	1	UNK0	0.000	
24	 C21	4.598	10.339	23.773	C.2	1	UNK0	0.000	
25	 C22	5.240	8.971	23.664	C.3	1	UNK0	0.000	
26	 C23	6.745	9.290	23.536	C.3	1	UNK0	0.000	
27	 C24	4.706	8.143	22.486	C.3	1	UNK0	0.000	
28	  O3	5.438	6.869	22.536	O.3	1	UNK0	0.000	
29	 C25	0.204	7.597	27.009	C.2	1	UNK0	0.000	
30	  O4	-0.866	7.452	26.390	O.2	1	UNK0	0.000	
31	 C26	3.377	5.510	21.271	C.3	1	UNK0	0.000	
32	  O5	2.805	7.016	21.366	O.3	1	UNK0	0.000	
33	  N2	3.746	6.120	27.273	N.pl3	1	UNK0	0.000	
34	 C27	5.105	6.619	27.440	C.3	1	UNK0	0.000	
35	 C28	6.341	5.726	27.029	C.3	1	UNK0	0.000	
36	  N3	7.068	5.644	25.669	N.3	1	UNK0	0.000	
37	 C29	7.666	6.909	25.335	C.3	1	UNK0	0.000	
38	 C30	6.228	5.440	24.527	C.3	1	UNK0	0.000	
39	  O6	1.695	14.144	24.431	O.3	1	UNK0	0.000	
40	 C31	0.805	14.562	23.460	C.3	1	UNK0	0.000	
41	  O7	4.149	13.315	25.430	O.3	1	UNK0	0.000	
42	 C32	4.965	14.306	24.848	C.2	1	UNK0	0.000	
43	  N4	4.371	15.503	25.029	N.pl3	1	UNK0	0.000	
44	  O8	6.033	14.135	24.278	O.co2	1	UNK0	0.000	
@<TRIPOS>BOND
1 1 2 1
2 1 27 1
3 1 32 1
4 2 3 1
5 3 4 1
6 3 5 1
7 5 6 1
8 6 7 2
9 6 29 1
10 7 8 1
11 7 33 1
12 8 9 2
13 8 10 1
14 10 11 2
15 11 12 1
16 11 29 1
17 12 13 1
18 13 14 2
19 13 15 1
20 15 16 1
21 15 17 2
22 17 18 1
23 18 19 2
24 19 20 1
25 20 21 1
26 20 39 1
27 21 22 1
28 21 41 1
29 22 23 1
30 22 24 2
31 24 25 1
32 25 26 1
33 25 27 1
34 27 28 1
35 29 30 2
36 31 32 1
37 33 34 1
38 34 35 1
39 35 36 1
40 36 37 1
41 36 38 1
42 39 40 1
43 41 42 1
44 42 43 1
45 42 44 2
@<TRIPOS>SUBSTRUCTURE
1	UNK0	1	GROUP	1 ****	UNK
