# created with PyMOL 2.5.0
@<TRIPOS>MOLECULE
MOL
44 46 1                 
SMALL
USER_CHARGES
@<TRIPOS>ATOM
1	 H10	7.951	7.994	25.385	 H	1	UNK0	0.000	
2	 H02	5.190	16.908	26.279	 H	1	UNK0	0.000	
3	 H04	7.377	11.500	22.146	 H	1	UNK0	0.000	
4	 H01	9.144	15.299	24.513	 H	1	UNK0	0.000	
5	 H06	6.790	9.993	24.678	 H	1	UNK0	0.000	
6	 H05	5.983	10.440	22.404	 H	1	UNK0	0.000	
7	 H09	8.534	7.031	24.006	 H	1	UNK0	0.000	
8	 H08	6.802	7.411	24.158	 H	1	UNK0	0.000	
9	 H03	4.020	15.656	25.929	 H	1	UNK0	0.000	
10	 H07	8.355	10.873	24.233	 H	1	UNK0	0.000	
11	 H13	3.883	10.275	24.363	 H	1	UNK0	0.000	
12	 H12	7.612	8.879	22.523	 H	1	UNK0	0.000	
13	 H11	9.095	9.235	23.620	 H	1	UNK0	0.000	
14	 H14	3.995	10.695	22.630	 H	1	UNK0	0.000	
15	 H18	-1.269	12.846	23.733	 H	1	UNK0	0.000	
16	 H17	0.146	13.345	21.769	 H	1	UNK0	0.000	
17	 H16	1.957	10.716	25.596	 H	1	UNK0	0.000	
18	 H19	0.403	10.377	27.368	 H	1	UNK0	0.000	
19	 H15	2.497	12.525	21.712	 H	1	UNK0	0.000	
20	 H21	-0.075	9.412	25.952	 H	1	UNK0	0.000	
21	 H20	-1.312	9.991	27.093	 H	1	UNK0	0.000	
22	  N1	6.025	12.152	23.633	N.pl3	1	UNK0	0.000	
23	  C1	6.600	13.263	24.046	C.2	1	UNK0	0.000	
24	  N2	7.838	13.757	23.962	N.2	1	UNK0	0.000	
25	  C2	8.112	14.948	24.530	C.2	1	UNK0	0.000	
26	  N3	7.182	15.733	25.122	N.2	1	UNK0	0.000	
27	  C3	5.533	14.042	24.667	C.2	1	UNK0	0.000	
28	  C4	5.907	15.302	25.255	C.2	1	UNK0	0.000	
29	  N4	4.963	16.013	25.871	N.pl3	1	UNK0	0.000	
30	  N5	4.412	13.342	24.563	N.2	1	UNK0	0.000	
31	  C5	4.744	12.180	23.965	C.2	1	UNK0	0.000	
32	  C6	6.714	11.077	22.902	C.3	1	UNK0	0.000	
33	  C7	7.517	10.256	23.909	C.3	1	UNK0	0.000	
34	  C8	7.812	7.783	24.324	C.3	1	UNK0	0.000	
35	  C9	8.023	9.071	23.514	C.3	1	UNK0	0.000	
36	 C10	3.776	11.074	23.628	C.3	1	UNK0	0.000	
37	 C11	1.859	12.316	22.572	C.2	1	UNK0	0.000	
38	 C12	2.354	11.587	23.666	C.2	1	UNK0	0.000	
39	 C13	1.560	11.282	24.754	C.2	1	UNK0	0.000	
40	 C14	0.548	12.767	22.601	C.2	1	UNK0	0.000	
41	 C15	-0.244	12.475	23.694	C.2	1	UNK0	0.000	
42	 C16	0.254	11.714	24.743	C.2	1	UNK0	0.000	
43	  O1	-0.511	11.431	25.842	O.3	1	UNK0	0.000	
44	 C17	-0.366	10.231	26.609	C.3	1	UNK0	0.000	
@<TRIPOS>BOND
1 22 23 1
2 22 31 1
3 22 32 1
4 23 24 1
5 23 27 2
6 24 25 2
7 4 25 1
8 25 26 1
9 26 28 2
10 27 28 1
11 27 30 1
12 28 29 1
13 2 29 1
14 9 29 1
15 30 31 2
16 31 36 1
17 3 32 1
18 6 32 1
19 32 33 1
20 5 33 1
21 10 33 1
22 33 35 1
23 1 34 1
24 7 34 1
25 8 34 1
26 34 35 1
27 12 35 1
28 13 35 1
29 11 36 1
30 14 36 1
31 36 38 1
32 19 37 1
33 37 38 2
34 37 40 1
35 38 39 1
36 17 39 1
37 39 42 2
38 16 40 1
39 40 41 2
40 15 41 1
41 41 42 1
42 42 43 1
43 43 44 1
44 18 44 1
45 20 44 1
46 21 44 1
@<TRIPOS>SUBSTRUCTURE
1	UNK0	1	GROUP	1 ****	UNK
