# created with PyMOL 2.5.0
@<TRIPOS>MOLECULE
MOL
50 52 1                 
SMALL
USER_CHARGES
@<TRIPOS>ATOM
1	 H21	6.978	7.822	22.431	 H	1	UNK0	0.000	
2	 H22	6.301	7.326	24.002	 H	1	UNK0	0.000	
3	 H19	8.289	8.444	24.903	 H	1	UNK0	0.000	
4	 H08	-1.362	11.083	23.871	 H	1	UNK0	0.000	
5	 H20	5.763	8.841	23.239	 H	1	UNK0	0.000	
6	 H01	4.945	16.703	26.363	 H	1	UNK0	0.000	
7	 H05	3.652	11.356	22.292	 H	1	UNK0	0.000	
8	 H04	4.790	10.134	22.995	 H	1	UNK0	0.000	
9	 H11	0.535	7.206	26.346	 H	1	UNK0	0.000	
10	 H03	9.149	15.454	24.817	 H	1	UNK0	0.000	
11	 H09	-1.904	9.958	25.140	 H	1	UNK0	0.000	
12	 H02	3.851	15.432	25.863	 H	1	UNK0	0.000	
13	 H10	-1.081	7.949	26.421	 H	1	UNK0	0.000	
14	 H07	-2.278	11.693	25.269	 H	1	UNK0	0.000	
15	 H14	2.827	5.894	26.544	 H	1	UNK0	0.000	
16	 H13	4.495	6.496	26.693	 H	1	UNK0	0.000	
17	 H12	-0.297	7.375	27.912	 H	1	UNK0	0.000	
18	 H15	3.574	6.790	25.199	 H	1	UNK0	0.000	
19	 H18	8.910	10.864	24.150	 H	1	UNK0	0.000	
20	 H17	6.491	10.440	22.247	 H	1	UNK0	0.000	
21	 H16	7.797	11.631	22.013	 H	1	UNK0	0.000	
22	 H06	4.466	9.090	24.920	 H	1	UNK0	0.000	
23	  C1	5.067	12.098	23.682	C.2	1	UNK0	0.000	
24	  N1	4.662	13.171	24.354	N.2	1	UNK0	0.000	
25	  C2	5.731	13.896	24.610	C.2	1	UNK0	0.000	
26	  C3	5.899	15.106	25.271	C.2	1	UNK0	0.000	
27	  N2	4.782	15.821	25.897	N.pl3	1	UNK0	0.000	
28	  C4	6.821	13.266	24.030	C.2	1	UNK0	0.000	
29	  N3	8.052	13.813	24.103	N.2	1	UNK0	0.000	
30	  C5	8.164	14.993	24.748	C.2	1	UNK0	0.000	
31	  N4	7.116	15.630	25.314	N.2	1	UNK0	0.000	
32	  N5	6.377	12.145	23.467	N.pl3	1	UNK0	0.000	
33	  C6	4.161	11.003	23.189	C.3	1	UNK0	0.000	
34	  C7	0.966	10.651	25.328	C.2	1	UNK0	0.000	
35	  C8	1.823	11.148	24.338	C.2	1	UNK0	0.000	
36	  C9	1.381	9.609	26.145	C.2	1	UNK0	0.000	
37	 C10	2.627	9.044	26.007	C.2	1	UNK0	0.000	
38	 C11	3.478	9.535	25.034	C.2	1	UNK0	0.000	
39	 C12	3.109	10.574	24.204	C.2	1	UNK0	0.000	
40	 Cl1	1.294	12.479	23.336	Cl	1	UNK0	0.000	
41	 C13	-1.536	10.965	24.940	C.3	1	UNK0	0.000	
42	  O1	-0.332	11.173	25.639	O.3	1	UNK0	0.000	
43	  O2	0.474	9.130	27.120	O.3	1	UNK0	0.000	
44	 C14	-0.128	7.837	26.939	C.3	1	UNK0	0.000	
45	  O3	3.013	7.941	26.832	O.3	1	UNK0	0.000	
46	 C15	3.507	6.705	26.283	C.3	1	UNK0	0.000	
47	 C16	7.165	11.135	22.749	C.3	1	UNK0	0.000	
48	 C17	8.037	10.373	23.720	C.2	1	UNK0	0.000	
49	 C18	7.720	8.932	24.111	C.2	1	UNK0	0.000	
50	 C19	6.613	8.177	23.395	C.3	1	UNK0	0.000	
@<TRIPOS>BOND
1 23 24 2
2 23 32 1
3 23 33 1
4 24 25 1
5 25 26 2
6 25 28 1
7 26 27 1
8 26 31 1
9 6 27 1
10 12 27 1
11 28 29 2
12 28 32 1
13 29 30 1
14 10 30 1
15 30 31 2
16 32 47 1
17 7 33 1
18 8 33 1
19 33 39 1
20 34 35 2
21 34 36 1
22 34 42 1
23 35 39 1
24 35 40 1
25 36 37 2
26 36 43 1
27 37 38 1
28 37 45 1
29 22 38 1
30 38 39 2
31 4 41 1
32 11 41 1
33 14 41 1
34 41 42 1
35 43 44 1
36 9 44 1
37 13 44 1
38 17 44 1
39 45 46 1
40 15 46 1
41 16 46 1
42 18 46 1
43 20 47 1
44 21 47 1
45 47 48 1
46 19 48 1
47 48 49 2
48 3 49 1
49 49 50 1
50 1 50 1
51 2 50 1
52 5 50 1
@<TRIPOS>SUBSTRUCTURE
1	UNK0	1	GROUP	1 ****	UNK
