# created with PyMOL 2.5.0
@<TRIPOS>MOLECULE
MOL
44 46 1                 
SMALL
USER_CHARGES
@<TRIPOS>ATOM
1	 H10	8.510	7.493	22.824	 H	1	UNK0	0.000	
2	 H02	4.967	16.647	26.320	 H	1	UNK0	0.000	
3	 H04	7.883	11.632	22.171	 H	1	UNK0	0.000	
4	 H01	9.138	15.406	24.769	 H	1	UNK0	0.000	
5	 H06	7.575	10.671	24.758	 H	1	UNK0	0.000	
6	 H05	6.494	10.538	22.114	 H	1	UNK0	0.000	
7	 H09	7.813	6.879	24.343	 H	1	UNK0	0.000	
8	 H08	9.219	7.969	24.385	 H	1	UNK0	0.000	
9	 H03	3.915	15.340	25.823	 H	1	UNK0	0.000	
10	 H07	8.858	10.150	23.532	 H	1	UNK0	0.000	
11	 H13	4.571	9.955	23.673	 H	1	UNK0	0.000	
12	 H12	6.847	8.896	24.888	 H	1	UNK0	0.000	
13	 H11	6.763	8.823	23.012	 H	1	UNK0	0.000	
14	 H14	4.142	10.861	22.195	 H	1	UNK0	0.000	
15	 H18	-0.823	11.493	25.138	 H	1	UNK0	0.000	
16	 H17	0.782	10.116	26.417	 H	1	UNK0	0.000	
17	 H16	2.154	12.311	22.158	 H	1	UNK0	0.000	
18	 H19	-2.227	13.360	22.512	 H	1	UNK0	0.000	
19	 H15	3.102	9.826	25.560	 H	1	UNK0	0.000	
20	 H21	-2.037	12.023	23.671	 H	1	UNK0	0.000	
21	 H20	-1.792	11.735	21.931	 H	1	UNK0	0.000	
22	  N1	6.318	12.109	23.508	N.pl3	1	UNK0	0.000	
23	  C1	6.782	13.232	24.016	C.2	1	UNK0	0.000	
24	  N2	7.986	13.812	24.048	N.2	1	UNK0	0.000	
25	  C2	8.135	14.985	24.694	C.2	1	UNK0	0.000	
26	  N3	7.112	15.673	25.254	N.2	1	UNK0	0.000	
27	  C3	5.623	13.903	24.596	C.2	1	UNK0	0.000	
28	  C4	5.865	15.150	25.272	C.2	1	UNK0	0.000	
29	  N4	4.832	15.762	25.852	N.pl3	1	UNK0	0.000	
30	  N5	4.564	13.136	24.375	N.2	1	UNK0	0.000	
31	  C5	5.018	12.033	23.745	C.2	1	UNK0	0.000	
32	  C6	7.131	11.125	22.775	C.3	1	UNK0	0.000	
33	  C7	7.802	10.210	23.797	C.3	1	UNK0	0.000	
34	  C8	8.291	7.734	23.864	C.3	1	UNK0	0.000	
35	  C9	7.350	8.946	23.922	C.3	1	UNK0	0.000	
36	 C10	4.157	10.885	23.284	C.3	1	UNK0	0.000	
37	 C11	2.381	10.428	25.008	C.2	1	UNK0	0.000	
38	 C12	2.744	11.045	23.799	C.2	1	UNK0	0.000	
39	 C13	1.860	11.838	23.095	C.2	1	UNK0	0.000	
40	 C14	1.090	10.596	25.488	C.2	1	UNK0	0.000	
41	 C15	0.200	11.376	24.778	C.2	1	UNK0	0.000	
42	 C16	0.596	12.013	23.609	C.2	1	UNK0	0.000	
43	  O1	-0.278	12.775	22.883	O.3	1	UNK0	0.000	
44	 C17	-1.666	12.454	22.741	C.3	1	UNK0	0.000	
@<TRIPOS>BOND
1 22 23 1
2 22 31 1
3 22 32 1
4 23 24 1
5 23 27 2
6 24 25 2
7 4 25 1
8 25 26 1
9 26 28 2
10 27 28 1
11 27 30 1
12 28 29 1
13 2 29 1
14 9 29 1
15 30 31 2
16 31 36 1
17 3 32 1
18 6 32 1
19 32 33 1
20 5 33 1
21 10 33 1
22 33 35 1
23 1 34 1
24 7 34 1
25 8 34 1
26 34 35 1
27 12 35 1
28 13 35 1
29 11 36 1
30 14 36 1
31 36 38 1
32 19 37 1
33 37 38 2
34 37 40 1
35 38 39 1
36 17 39 1
37 39 42 2
38 16 40 1
39 40 41 2
40 15 41 1
41 41 42 1
42 42 43 1
43 43 44 1
44 18 44 1
45 20 44 1
46 21 44 1
@<TRIPOS>SUBSTRUCTURE
1	UNK0	1	GROUP	1 ****	UNK
