# created with PyMOL 2.5.0
@<TRIPOS>MOLECULE
MOL
52 54 1                 
SMALL
USER_CHARGES
@<TRIPOS>ATOM
1	 H01	5.340	16.819	26.422	 H	1	UNK0	0.000	
2	 H12	0.698	6.892	26.115	 H	1	UNK0	0.000	
3	 H04	4.617	10.390	22.910	 H	1	UNK0	0.000	
4	 H03	9.308	15.312	24.698	 H	1	UNK0	0.000	
5	 H02	4.130	15.639	25.971	 H	1	UNK0	0.000	
6	 H11	-0.910	7.637	26.276	 H	1	UNK0	0.000	
7	 H09	3.211	5.676	25.826	 H	1	UNK0	0.000	
8	 H08	4.805	6.374	26.197	 H	1	UNK0	0.000	
9	 H15	-1.067	11.348	24.091	 H	1	UNK0	0.000	
10	 H07	1.386	11.900	23.963	 H	1	UNK0	0.000	
11	 H05	3.356	11.677	22.520	 H	1	UNK0	0.000	
12	 H06	4.551	9.099	24.785	 H	1	UNK0	0.000	
13	 H23	8.848	8.371	24.647	 H	1	UNK0	0.000	
14	 H14	-2.186	11.466	25.470	 H	1	UNK0	0.000	
15	 H18	6.460	10.660	22.069	 H	1	UNK0	0.000	
16	 H17	7.941	11.546	22.378	 H	1	UNK0	0.000	
17	 H16	-1.726	9.870	24.832	 H	1	UNK0	0.000	
18	 H19	6.861	10.446	24.840	 H	1	UNK0	0.000	
19	 H22	5.953	8.538	24.027	 H	1	UNK0	0.000	
20	 H21	6.952	8.509	22.582	 H	1	UNK0	0.000	
21	 H20	8.482	10.138	24.078	 H	1	UNK0	0.000	
22	 H10	3.905	6.927	24.765	 H	1	UNK0	0.000	
23	 H13	-0.155	6.840	27.676	 H	1	UNK0	0.000	
24	 H25	8.243	6.973	23.727	 H	1	UNK0	0.000	
25	 H24	7.499	7.403	25.286	 H	1	UNK0	0.000	
26	  C1	4.945	12.236	23.789	C.2	1	UNK0	0.000	
27	  N1	4.526	13.311	24.465	N.2	1	UNK0	0.000	
28	  C2	5.678	13.999	24.642	C.2	1	UNK0	0.000	
29	  C3	6.032	15.229	25.333	C.2	1	UNK0	0.000	
30	  N2	5.089	15.956	25.961	N.pl3	1	UNK0	0.000	
31	  C4	6.789	13.267	24.046	C.2	1	UNK0	0.000	
32	  N3	8.047	13.741	24.085	N.2	1	UNK0	0.000	
33	  C5	8.288	14.926	24.691	C.2	1	UNK0	0.000	
34	  N4	7.312	15.653	25.290	N.2	1	UNK0	0.000	
35	  N5	6.263	12.185	23.509	N.pl3	1	UNK0	0.000	
36	  C6	3.981	11.197	23.273	C.3	1	UNK0	0.000	
37	  C7	2.773	8.768	25.959	C.2	1	UNK0	0.000	
38	  C8	3.537	9.446	24.986	C.2	1	UNK0	0.000	
39	  C9	1.446	9.272	26.241	C.2	1	UNK0	0.000	
40	 C10	0.959	10.425	25.503	C.2	1	UNK0	0.000	
41	 C11	1.759	11.043	24.523	C.2	1	UNK0	0.000	
42	 C12	3.055	10.533	24.276	C.2	1	UNK0	0.000	
43	 C13	3.814	6.584	25.796	C.3	1	UNK0	0.000	
44	  O1	3.179	7.613	26.594	O.3	1	UNK0	0.000	
45	  O2	0.648	8.684	27.161	O.3	1	UNK0	0.000	
46	 C14	0.033	7.438	26.784	C.3	1	UNK0	0.000	
47	  O3	-0.292	10.844	25.912	O.3	1	UNK0	0.000	
48	 C15	-1.378	10.884	25.027	C.3	1	UNK0	0.000	
49	 C16	7.047	11.139	22.852	C.3	1	UNK0	0.000	
50	 C17	7.400	10.133	23.945	C.3	1	UNK0	0.000	
51	 C18	6.963	8.708	23.654	C.3	1	UNK0	0.000	
52	 C19	7.960	7.798	24.381	C.3	1	UNK0	0.000	
@<TRIPOS>BOND
1 26 27 2
2 26 35 1
3 26 36 1
4 27 28 1
5 28 29 2
6 28 31 1
7 29 30 1
8 29 34 1
9 1 30 1
10 5 30 1
11 31 32 2
12 31 35 1
13 32 33 1
14 4 33 1
15 33 34 2
16 35 49 1
17 3 36 1
18 11 36 1
19 36 42 1
20 37 38 2
21 37 39 1
22 37 44 1
23 12 38 1
24 38 42 1
25 39 40 2
26 39 45 1
27 40 41 1
28 40 47 1
29 10 41 1
30 41 42 2
31 7 43 1
32 8 43 1
33 22 43 1
34 43 44 1
35 45 46 1
36 2 46 1
37 6 46 1
38 23 46 1
39 47 48 1
40 9 48 1
41 14 48 1
42 17 48 1
43 15 49 1
44 16 49 1
45 49 50 1
46 18 50 1
47 21 50 1
48 50 51 1
49 19 51 1
50 20 51 1
51 51 52 1
52 13 52 1
53 24 52 1
54 25 52 1
@<TRIPOS>SUBSTRUCTURE
1	UNK0	1	GROUP	1 ****	UNK
