# created with PyMOL 2.5.0
@<TRIPOS>MOLECULE
MOL
51 53 1                 
SMALL
USER_CHARGES
@<TRIPOS>ATOM
1	 H20	9.063	8.792	22.920	 H	1	UNK0	0.000	
2	 H21	7.332	8.885	22.373	 H	1	UNK0	0.000	
3	 H18	7.306	10.299	24.694	 H	1	UNK0	0.000	
4	 H22	7.046	6.089	25.537	 H	1	UNK0	0.000	
5	 H01	4.607	16.611	26.386	 H	1	UNK0	0.000	
6	 H19	8.943	10.678	24.066	 H	1	UNK0	0.000	
7	 H04	4.817	9.946	23.248	 H	1	UNK0	0.000	
8	 H03	8.849	15.583	24.890	 H	1	UNK0	0.000	
9	 H10	-2.075	10.596	27.468	 H	1	UNK0	0.000	
10	 H02	3.564	15.304	25.872	 H	1	UNK0	0.000	
11	 H08	1.477	6.519	26.415	 H	1	UNK0	0.000	
12	 H07	-0.247	6.860	26.692	 H	1	UNK0	0.000	
13	 H06	2.032	12.427	23.040	 H	1	UNK0	0.000	
14	 H09	0.964	7.368	27.894	 H	1	UNK0	0.000	
15	 H13	-2.273	12.839	23.413	 H	1	UNK0	0.000	
16	 H12	-0.786	11.781	27.152	 H	1	UNK0	0.000	
17	 H11	-0.395	10.224	27.922	 H	1	UNK0	0.000	
18	 H14	-0.984	12.540	22.223	 H	1	UNK0	0.000	
19	 H17	6.803	10.780	22.032	 H	1	UNK0	0.000	
20	 H16	8.112	11.945	22.390	 H	1	UNK0	0.000	
21	 H15	-1.739	11.174	23.080	 H	1	UNK0	0.000	
22	 H05	3.987	11.039	22.078	 H	1	UNK0	0.000	
23	  C1	5.023	12.017	23.673	C.2	1	UNK0	0.000	
24	  N1	4.495	13.043	24.353	N.2	1	UNK0	0.000	
25	  C2	5.493	13.876	24.638	C.2	1	UNK0	0.000	
26	  C3	5.608	15.066	25.307	C.2	1	UNK0	0.000	
27	  N2	4.480	15.726	25.916	N.pl3	1	UNK0	0.000	
28	  C4	6.621	13.356	24.086	C.2	1	UNK0	0.000	
29	  N3	7.838	13.897	24.156	N.2	1	UNK0	0.000	
30	  C5	7.890	15.074	24.806	C.2	1	UNK0	0.000	
31	  N4	6.804	15.646	25.357	N.2	1	UNK0	0.000	
32	  N5	6.362	12.208	23.497	N.pl3	1	UNK0	0.000	
33	  C6	4.215	10.847	23.127	C.3	1	UNK0	0.000	
34	 Cl1	3.884	8.255	24.959	Cl	1	UNK0	0.000	
35	  C7	2.664	9.515	24.730	C.2	1	UNK0	0.000	
36	  C8	1.407	9.409	25.352	C.2	1	UNK0	0.000	
37	  C9	0.420	10.348	25.163	C.2	1	UNK0	0.000	
38	 C10	0.626	11.431	24.340	C.2	1	UNK0	0.000	
39	 C11	1.864	11.574	23.697	C.2	1	UNK0	0.000	
40	 C12	2.897	10.630	23.887	C.2	1	UNK0	0.000	
41	  O1	0.896	8.393	26.210	O.3	1	UNK0	0.000	
42	 C13	0.767	7.235	26.830	C.3	1	UNK0	0.000	
43	  O2	-0.807	10.126	25.875	O.3	1	UNK0	0.000	
44	 C14	-1.029	10.719	27.187	C.3	1	UNK0	0.000	
45	  O3	-0.426	12.321	24.214	O.3	1	UNK0	0.000	
46	 C15	-1.416	12.211	23.168	C.3	1	UNK0	0.000	
47	 C16	7.318	11.333	22.818	C.3	1	UNK0	0.000	
48	 C17	7.939	10.341	23.808	C.3	1	UNK0	0.000	
49	 C18	8.024	8.941	23.214	C.3	1	UNK0	0.000	
50	 C19	7.682	7.811	24.195	C.1	1	UNK0	0.000	
51	 C20	7.351	6.914	24.894	C.1	1	UNK0	0.000	
@<TRIPOS>BOND
1 23 24 2
2 23 32 1
3 23 33 1
4 24 25 1
5 25 26 2
6 25 28 1
7 26 27 1
8 26 31 1
9 5 27 1
10 10 27 1
11 28 29 2
12 28 32 1
13 29 30 1
14 8 30 1
15 30 31 2
16 32 47 1
17 7 33 1
18 22 33 1
19 33 40 1
20 34 35 1
21 35 36 1
22 35 40 2
23 36 37 2
24 36 41 1
25 37 38 1
26 37 43 1
27 38 39 2
28 38 45 1
29 13 39 1
30 39 40 1
31 41 42 1
32 11 42 1
33 12 42 1
34 14 42 1
35 43 44 1
36 9 44 1
37 16 44 1
38 17 44 1
39 45 46 1
40 15 46 1
41 18 46 1
42 21 46 1
43 19 47 1
44 20 47 1
45 47 48 1
46 3 48 1
47 6 48 1
48 48 49 1
49 1 49 1
50 2 49 1
51 49 50 1
52 50 51 3
53 4 51 1
@<TRIPOS>SUBSTRUCTURE
1	UNK0	1	GROUP	1 ****	UNK
