# created with PyMOL 2.5.0
@<TRIPOS>MOLECULE
MOL
52 54 1                 
SMALL
USER_CHARGES
@<TRIPOS>ATOM
1	 H01	5.039	16.688	26.404	 H	1	UNK0	0.000	
2	 H12	-0.554	9.853	27.971	 H	1	UNK0	0.000	
3	 H04	4.666	10.087	23.398	 H	1	UNK0	0.000	
4	 H03	9.122	15.464	24.724	 H	1	UNK0	0.000	
5	 H02	3.919	15.431	25.931	 H	1	UNK0	0.000	
6	 H11	-1.959	10.849	27.522	 H	1	UNK0	0.000	
7	 H09	1.761	8.583	28.413	 H	1	UNK0	0.000	
8	 H08	3.128	8.894	27.317	 H	1	UNK0	0.000	
9	 H15	-1.030	12.439	22.237	 H	1	UNK0	0.000	
10	 H07	1.743	12.423	22.890	 H	1	UNK0	0.000	
11	 H05	3.907	11.226	22.163	 H	1	UNK0	0.000	
12	 H06	3.558	9.152	25.022	 H	1	UNK0	0.000	
13	 H23	9.056	8.308	24.410	 H	1	UNK0	0.000	
14	 H14	-2.423	12.710	23.311	 H	1	UNK0	0.000	
15	 H18	6.618	10.609	22.069	 H	1	UNK0	0.000	
16	 H17	8.019	11.632	22.327	 H	1	UNK0	0.000	
17	 H16	-1.850	11.054	22.998	 H	1	UNK0	0.000	
18	 H19	7.308	10.652	24.877	 H	1	UNK0	0.000	
19	 H22	6.371	8.658	24.723	 H	1	UNK0	0.000	
20	 H21	6.435	8.692	22.969	 H	1	UNK0	0.000	
21	 H20	8.722	10.115	23.869	 H	1	UNK0	0.000	
22	 H10	2.563	7.227	27.583	 H	1	UNK0	0.000	
23	 H13	-0.316	11.520	27.393	 H	1	UNK0	0.000	
24	 H25	8.489	7.567	22.895	 H	1	UNK0	0.000	
25	 H24	7.914	6.944	24.460	 H	1	UNK0	0.000	
26	  C1	4.991	12.104	23.744	C.2	1	UNK0	0.000	
27	  N1	4.492	13.144	24.420	N.2	1	UNK0	0.000	
28	  C2	5.591	13.907	24.614	C.2	1	UNK0	0.000	
29	  C3	5.852	15.155	25.316	C.2	1	UNK0	0.000	
30	  N2	4.853	15.812	25.935	N.pl3	1	UNK0	0.000	
31	  C4	6.758	13.256	24.030	C.2	1	UNK0	0.000	
32	  N3	7.980	13.814	24.087	N.2	1	UNK0	0.000	
33	  C5	8.132	15.009	24.702	C.2	1	UNK0	0.000	
34	  N4	7.100	15.665	25.292	N.2	1	UNK0	0.000	
35	  N5	6.313	12.144	23.481	N.pl3	1	UNK0	0.000	
36	  C6	4.107	11.004	23.211	C.3	1	UNK0	0.000	
37	  C7	1.490	9.482	25.537	C.2	1	UNK0	0.000	
38	  C8	2.676	9.762	24.827	C.2	1	UNK0	0.000	
39	  C9	0.344	10.332	25.293	C.2	1	UNK0	0.000	
40	 C10	0.460	11.409	24.324	C.2	1	UNK0	0.000	
41	 C11	1.664	11.622	23.625	C.2	1	UNK0	0.000	
42	 C12	2.768	10.781	23.892	C.2	1	UNK0	0.000	
43	 C13	2.253	8.268	27.493	C.3	1	UNK0	0.000	
44	  O1	1.332	8.404	26.382	O.3	1	UNK0	0.000	
45	  O2	-0.830	10.136	25.933	O.3	1	UNK0	0.000	
46	 C14	-0.920	10.619	27.287	C.3	1	UNK0	0.000	
47	  O3	-0.680	12.184	24.232	O.3	1	UNK0	0.000	
48	 C15	-1.543	12.091	23.133	C.3	1	UNK0	0.000	
49	 C16	7.175	11.158	22.829	C.3	1	UNK0	0.000	
50	 C17	7.639	10.212	23.936	C.3	1	UNK0	0.000	
51	 C18	7.031	8.823	23.872	C.3	1	UNK0	0.000	
52	 C19	8.207	7.839	23.912	C.3	1	UNK0	0.000	
@<TRIPOS>BOND
1 26 27 2
2 26 35 1
3 26 36 1
4 27 28 1
5 28 29 2
6 28 31 1
7 29 30 1
8 29 34 1
9 1 30 1
10 5 30 1
11 31 32 2
12 31 35 1
13 32 33 1
14 4 33 1
15 33 34 2
16 35 49 1
17 3 36 1
18 11 36 1
19 36 42 1
20 37 38 2
21 37 39 1
22 37 44 1
23 12 38 1
24 38 42 1
25 39 40 2
26 39 45 1
27 40 41 1
28 40 47 1
29 10 41 1
30 41 42 2
31 7 43 1
32 8 43 1
33 22 43 1
34 43 44 1
35 45 46 1
36 2 46 1
37 6 46 1
38 23 46 1
39 47 48 1
40 9 48 1
41 14 48 1
42 17 48 1
43 15 49 1
44 16 49 1
45 49 50 1
46 18 50 1
47 21 50 1
48 50 51 1
49 19 51 1
50 20 51 1
51 51 52 1
52 13 52 1
53 24 52 1
54 25 52 1
@<TRIPOS>SUBSTRUCTURE
1	UNK0	1	GROUP	1 ****	UNK
