# created with PyMOL 2.5.0
@<TRIPOS>MOLECULE
MOL
44 46 1                 
SMALL
USER_CHARGES
@<TRIPOS>ATOM
1	 H10	11.495	14.184	25.915	 H	1	UNK0	0.000	
2	 H02	1.379	14.161	24.771	 H	1	UNK0	0.000	
3	 H04	8.594	14.873	24.039	 H	1	UNK0	0.000	
4	 H01	4.736	17.180	26.380	 H	1	UNK0	0.000	
5	 H06	9.250	13.331	26.408	 H	1	UNK0	0.000	
6	 H05	8.983	13.133	24.248	 H	1	UNK0	0.000	
7	 H09	11.185	14.525	27.635	 H	1	UNK0	0.000	
8	 H08	11.700	15.835	26.546	 H	1	UNK0	0.000	
9	 H03	2.264	12.809	24.101	 H	1	UNK0	0.000	
10	 H07	7.829	14.474	26.598	 H	1	UNK0	0.000	
11	 H13	8.299	11.871	23.779	 H	1	UNK0	0.000	
12	 H12	9.626	15.856	25.396	 H	1	UNK0	0.000	
13	 H11	9.255	15.675	27.217	 H	1	UNK0	0.000	
14	 H14	7.317	11.790	22.234	 H	1	UNK0	0.000	
15	 H18	9.171	7.502	24.027	 H	1	UNK0	0.000	
16	 H17	9.315	9.981	23.584	 H	1	UNK0	0.000	
17	 H16	4.851	7.650	24.031	 H	1	UNK0	0.000	
18	 H19	5.224	5.254	25.092	 H	1	UNK0	0.000	
19	 H15	4.967	10.117	23.643	 H	1	UNK0	0.000	
20	 H21	6.118	6.344	26.178	 H	1	UNK0	0.000	
21	 H20	6.746	4.712	25.839	 H	1	UNK0	0.000	
22	  N1	6.982	13.649	24.465	N.pl3	1	UNK0	0.000	
23	  C1	5.928	14.342	24.863	C.2	1	UNK0	0.000	
24	  N2	6.034	15.591	25.484	N.2	1	UNK0	0.000	
25	  C2	4.775	16.229	25.849	C.2	1	UNK0	0.000	
26	  N3	3.596	15.521	25.464	N.2	1	UNK0	0.000	
27	  C3	4.643	13.676	24.549	C.2	1	UNK0	0.000	
28	  C4	3.423	14.322	24.863	C.2	1	UNK0	0.000	
29	  N4	2.257	13.713	24.552	N.pl3	1	UNK0	0.000	
30	  N5	5.011	12.555	23.868	N.2	1	UNK0	0.000	
31	  C5	6.339	12.601	23.943	C.2	1	UNK0	0.000	
32	  C6	8.388	13.970	24.614	C.3	1	UNK0	0.000	
33	  C7	8.750	14.237	26.064	C.3	1	UNK0	0.000	
34	  C8	11.112	14.920	26.622	C.3	1	UNK0	0.000	
35	  C9	9.623	15.233	26.291	C.3	1	UNK0	0.000	
36	 C10	7.343	11.637	23.313	C.3	1	UNK0	0.000	
37	 C11	7.119	10.157	23.576	C.2	1	UNK0	0.000	
38	 C12	5.884	9.531	23.713	C.2	1	UNK0	0.000	
39	 C13	5.813	8.155	23.940	C.2	1	UNK0	0.000	
40	 C14	8.356	9.472	23.684	C.2	1	UNK0	0.000	
41	 C15	8.257	8.088	23.928	C.2	1	UNK0	0.000	
42	 C16	7.014	7.441	24.046	C.2	1	UNK0	0.000	
43	  O1	6.943	6.078	24.306	O.3	1	UNK0	0.000	
44	 C17	6.215	5.567	25.419	C.3	1	UNK0	0.000	
@<TRIPOS>BOND
1 22 23 1
2 22 31 1
3 22 32 1
4 23 24 1
5 23 27 2
6 24 25 2
7 4 25 1
8 25 26 1
9 26 28 2
10 27 28 1
11 27 30 1
12 28 29 1
13 2 29 1
14 9 29 1
15 30 31 2
16 31 36 1
17 3 32 1
18 6 32 1
19 32 33 1
20 5 33 1
21 10 33 1
22 33 35 1
23 1 34 1
24 7 34 1
25 8 34 1
26 34 35 1
27 12 35 1
28 13 35 1
29 11 36 1
30 14 36 1
31 36 37 1
32 37 38 2
33 37 40 1
34 19 38 1
35 38 39 1
36 17 39 1
37 39 42 2
38 16 40 1
39 40 41 2
40 15 41 1
41 41 42 1
42 42 43 1
43 43 44 1
44 18 44 1
45 20 44 1
46 21 44 1
@<TRIPOS>SUBSTRUCTURE
1	UNK0	1	GROUP	1 ****	UNK
