# created with PyMOL 2.5.0
@<TRIPOS>MOLECULE
MOL
23 25 1                 
SMALL
USER_CHARGES
@<TRIPOS>ATOM
1	  N1	6.025	12.152	23.633	N.pl3	1	UNK0	0.000	
2	  C1	6.600	13.263	24.046	C.2	1	UNK0	0.000	
3	  N2	7.838	13.757	23.962	N.2	1	UNK0	0.000	
4	  C2	8.112	14.948	24.530	C.2	1	UNK0	0.000	
5	  N3	7.182	15.733	25.122	N.2	1	UNK0	0.000	
6	  C3	5.533	14.042	24.667	C.2	1	UNK0	0.000	
7	  C4	5.907	15.302	25.255	C.2	1	UNK0	0.000	
8	  N4	4.963	16.013	25.871	N.pl3	1	UNK0	0.000	
9	  N5	4.412	13.342	24.563	N.2	1	UNK0	0.000	
10	  C5	4.744	12.180	23.965	C.2	1	UNK0	0.000	
11	  C6	6.714	11.077	22.902	C.3	1	UNK0	0.000	
12	  C7	7.517	10.256	23.909	C.3	1	UNK0	0.000	
13	  C8	7.812	7.783	24.324	C.3	1	UNK0	0.000	
14	  C9	8.023	9.071	23.514	C.3	1	UNK0	0.000	
15	 C10	3.776	11.074	23.628	C.3	1	UNK0	0.000	
16	 C11	1.859	12.316	22.572	C.2	1	UNK0	0.000	
17	 C12	2.354	11.587	23.666	C.2	1	UNK0	0.000	
18	 C13	1.560	11.282	24.754	C.2	1	UNK0	0.000	
19	 C14	0.548	12.767	22.601	C.2	1	UNK0	0.000	
20	 C15	-0.244	12.475	23.694	C.2	1	UNK0	0.000	
21	 C16	0.254	11.714	24.743	C.2	1	UNK0	0.000	
22	  O1	-0.511	11.431	25.842	O.3	1	UNK0	0.000	
23	 C17	-0.366	10.231	26.609	C.3	1	UNK0	0.000	
@<TRIPOS>BOND
1 1 2 1
2 1 10 1
3 1 11 1
4 2 3 1
5 2 6 2
6 3 4 2
7 4 5 1
8 5 7 2
9 6 7 1
10 6 9 1
11 7 8 1
12 9 10 2
13 10 15 1
14 11 12 1
15 12 14 1
16 13 14 1
17 15 17 1
18 16 17 2
19 16 19 1
20 17 18 1
21 18 21 2
22 19 20 2
23 20 21 1
24 21 22 1
25 22 23 1
@<TRIPOS>SUBSTRUCTURE
1	UNK0	1	GROUP	1 ****	UNK
