# created with PyMOL 2.5.0
@<TRIPOS>MOLECULE
MOL
43 46 1                 
SMALL
USER_CHARGES
@<TRIPOS>ATOM
1	 H17	0.455	13.464	22.417	 H	1	UNK0	0.000	
2	 H18	-2.188	11.348	25.843	 H	1	UNK0	0.000	
3	 H01	9.002	15.650	24.543	 H	1	UNK0	0.000	
4	 H10	7.926	8.250	25.415	 H	1	UNK0	0.000	
5	 H02	4.904	16.683	26.369	 H	1	UNK0	0.000	
6	 H07	8.843	10.707	23.995	 H	1	UNK0	0.000	
7	 H06	7.229	10.262	24.693	 H	1	UNK0	0.000	
8	 H05	6.514	10.582	22.123	 H	1	UNK0	0.000	
9	 H12	7.336	8.644	22.526	 H	1	UNK0	0.000	
10	 H04	7.861	11.721	22.163	 H	1	UNK0	0.000	
11	 H09	8.467	6.959	24.315	 H	1	UNK0	0.000	
12	 H03	3.836	15.352	25.987	 H	1	UNK0	0.000	
13	 H08	6.751	7.429	24.359	 H	1	UNK0	0.000	
14	 H11	9.074	8.721	23.047	 H	1	UNK0	0.000	
15	 H15	2.199	9.508	24.959	 H	1	UNK0	0.000	
16	 H14	4.366	10.521	22.390	 H	1	UNK0	0.000	
17	 H13	4.405	9.929	24.059	 H	1	UNK0	0.000	
18	 H16	2.870	12.828	22.243	 H	1	UNK0	0.000	
19	 H19	-2.512	10.317	24.475	 H	1	UNK0	0.000	
20	  N1	6.305	12.133	23.532	N.pl3	1	UNK0	0.000	
21	  C1	6.703	13.330	24.039	C.2	1	UNK0	0.000	
22	  N2	7.919	13.927	23.985	N.2	1	UNK0	0.000	
23	  C2	8.041	15.137	24.574	C.2	1	UNK0	0.000	
24	  N3	6.996	15.727	25.203	N.2	1	UNK0	0.000	
25	  C3	5.623	13.932	24.667	C.2	1	UNK0	0.000	
26	  C4	5.770	15.153	25.276	C.2	1	UNK0	0.000	
27	  N4	4.747	15.785	25.935	N.pl3	1	UNK0	0.000	
28	  N5	4.595	13.080	24.507	N.2	1	UNK0	0.000	
29	  C5	4.987	11.981	23.828	C.2	1	UNK0	0.000	
30	  C6	7.138	11.188	22.779	C.3	1	UNK0	0.000	
31	  C7	7.856	10.287	23.802	C.3	1	UNK0	0.000	
32	  C8	7.776	7.793	24.437	C.3	1	UNK0	0.000	
33	  C9	8.031	8.831	23.344	C.3	1	UNK0	0.000	
34	 C10	4.159	10.782	23.427	C.3	1	UNK0	0.000	
35	 C11	2.689	11.140	23.584	C.2	1	UNK0	0.000	
36	 C12	1.831	10.369	24.402	C.2	1	UNK0	0.000	
37	 C13	0.497	10.757	24.466	C.2	1	UNK0	0.000	
38	 C14	2.196	12.245	22.871	C.2	1	UNK0	0.000	
39	  O1	-0.550	10.198	25.179	O.3	1	UNK0	0.000	
40	 C15	0.846	12.605	22.961	C.2	1	UNK0	0.000	
41	 C16	0.024	11.831	23.764	C.2	1	UNK0	0.000	
42	  O2	-1.339	11.981	24.022	O.3	1	UNK0	0.000	
43	 C17	-1.749	10.948	24.928	C.3	1	UNK0	0.000	
@<TRIPOS>BOND
1 20 21 1
2 20 29 1
3 20 30 1
4 21 22 1
5 21 25 2
6 22 23 2
7 3 23 1
8 23 24 1
9 24 26 2
10 25 26 1
11 25 28 1
12 26 27 1
13 5 27 1
14 12 27 1
15 28 29 2
16 29 34 1
17 8 30 1
18 10 30 1
19 30 31 1
20 6 31 1
21 7 31 1
22 31 33 1
23 4 32 1
24 11 32 1
25 13 32 1
26 32 33 1
27 9 33 1
28 14 33 1
29 16 34 1
30 17 34 1
31 34 35 1
32 35 36 1
33 35 38 2
34 15 36 1
35 36 37 2
36 37 39 1
37 37 41 1
38 18 38 1
39 38 40 1
40 39 43 1
41 1 40 1
42 40 41 2
43 41 42 1
44 42 43 1
45 2 43 1
46 19 43 1
@<TRIPOS>SUBSTRUCTURE
1	UNK0	1	GROUP	1 ****	UNK
