# created with PyMOL 2.5.0
@<TRIPOS>MOLECULE
MOL
24 27 1                 
SMALL
USER_CHARGES
@<TRIPOS>ATOM
1	  N1	6.458	12.177	23.563	N.pl3	1	UNK0	0.000	
2	  C1	6.803	13.391	24.069	C.2	1	UNK0	0.000	
3	  N2	8.000	14.027	24.043	N.2	1	UNK0	0.000	
4	  C2	8.066	15.246	24.623	C.2	1	UNK0	0.000	
5	  N3	6.985	15.807	25.216	N.2	1	UNK0	0.000	
6	  C3	5.687	13.963	24.660	C.2	1	UNK0	0.000	
7	  C4	5.776	15.194	25.260	C.2	1	UNK0	0.000	
8	  N4	4.715	15.799	25.883	N.pl3	1	UNK0	0.000	
9	  N5	4.691	13.076	24.479	N.2	1	UNK0	0.000	
10	  C5	5.138	11.985	23.823	C.2	1	UNK0	0.000	
11	  C6	7.342	11.252	22.844	C.3	1	UNK0	0.000	
12	  C7	7.872	10.228	23.867	C.3	1	UNK0	0.000	
13	  C8	7.919	7.723	24.459	C.3	1	UNK0	0.000	
14	  C9	7.887	8.780	23.355	C.3	1	UNK0	0.000	
15	 C10	4.360	10.756	23.412	C.3	1	UNK0	0.000	
16	 C11	2.888	10.997	23.708	C.2	1	UNK0	0.000	
17	 C12	2.082	11.763	22.834	C.2	1	UNK0	0.000	
18	 C13	0.753	11.950	23.198	C.2	1	UNK0	0.000	
19	 C14	2.353	10.459	24.889	C.2	1	UNK0	0.000	
20	  O1	-0.251	12.643	22.542	O.3	1	UNK0	0.000	
21	 C15	1.010	10.670	25.222	C.2	1	UNK0	0.000	
22	 C16	0.241	11.429	24.354	C.2	1	UNK0	0.000	
23	  O2	-1.107	11.774	24.453	O.3	1	UNK0	0.000	
24	 C17	-1.463	12.558	23.307	C.3	1	UNK0	0.000	
@<TRIPOS>BOND
1 1 2 1
2 1 10 1
3 1 11 1
4 2 3 1
5 2 6 2
6 3 4 2
7 4 5 1
8 5 7 2
9 6 7 1
10 6 9 1
11 7 8 1
12 9 10 2
13 10 15 1
14 11 12 1
15 12 14 1
16 13 14 1
17 15 16 1
18 16 17 1
19 16 19 2
20 17 18 2
21 18 20 1
22 18 22 1
23 19 21 1
24 20 24 1
25 21 22 2
26 22 23 1
27 23 24 1
@<TRIPOS>SUBSTRUCTURE
1	UNK0	1	GROUP	1 ****	UNK
