# created with PyMOL 2.5.0
@<TRIPOS>MOLECULE
MOL
51 53 1                 
SMALL
USER_CHARGES
@<TRIPOS>ATOM
1	 H20	8.836	8.721	23.320	 H	1	UNK0	0.000	
2	 H21	7.517	9.251	22.187	 H	1	UNK0	0.000	
3	 H18	7.217	10.465	24.768	 H	1	UNK0	0.000	
4	 H22	5.420	6.588	24.721	 H	1	UNK0	0.000	
5	 H01	4.225	16.678	26.473	 H	1	UNK0	0.000	
6	 H19	8.878	10.748	24.151	 H	1	UNK0	0.000	
7	 H04	4.925	10.016	23.395	 H	1	UNK0	0.000	
8	 H03	8.523	15.959	24.956	 H	1	UNK0	0.000	
9	 H10	-1.806	10.117	27.885	 H	1	UNK0	0.000	
10	 H02	3.281	15.290	25.981	 H	1	UNK0	0.000	
11	 H08	-1.795	12.510	23.434	 H	1	UNK0	0.000	
12	 H07	-2.624	11.723	24.797	 H	1	UNK0	0.000	
13	 H06	4.037	9.253	25.432	 H	1	UNK0	0.000	
14	 H09	-2.284	10.803	23.313	 H	1	UNK0	0.000	
15	 H13	3.467	7.145	27.479	 H	1	UNK0	0.000	
16	 H12	-0.614	11.378	27.489	 H	1	UNK0	0.000	
17	 H11	-0.108	9.922	28.380	 H	1	UNK0	0.000	
18	 H14	1.816	6.482	27.460	 H	1	UNK0	0.000	
19	 H17	6.862	11.105	22.068	 H	1	UNK0	0.000	
20	 H16	8.127	12.231	22.641	 H	1	UNK0	0.000	
21	 H15	2.631	6.885	25.930	 H	1	UNK0	0.000	
22	 H05	3.991	11.031	22.234	 H	1	UNK0	0.000	
23	  C1	4.971	12.098	23.807	C.2	1	UNK0	0.000	
24	  N1	4.372	13.089	24.479	N.2	1	UNK0	0.000	
25	  C2	5.305	13.999	24.748	C.2	1	UNK0	0.000	
26	  C3	5.333	15.202	25.403	C.2	1	UNK0	0.000	
27	  N2	4.163	15.781	26.014	N.pl3	1	UNK0	0.000	
28	  C4	6.465	13.560	24.193	C.2	1	UNK0	0.000	
29	  N3	7.638	14.193	24.248	N.2	1	UNK0	0.000	
30	  C5	7.605	15.377	24.885	C.2	1	UNK0	0.000	
31	  N4	6.483	15.871	25.438	N.2	1	UNK0	0.000	
32	  N5	6.291	12.389	23.619	N.pl3	1	UNK0	0.000	
33	  C6	4.252	10.864	23.280	C.3	1	UNK0	0.000	
34	 Cl1	1.516	12.262	22.412	Cl	1	UNK0	0.000	
35	  C7	1.707	11.113	23.744	C.2	1	UNK0	0.000	
36	  C8	0.607	10.770	24.550	C.2	1	UNK0	0.000	
37	  C9	0.727	9.913	25.619	C.2	1	UNK0	0.000	
38	 C10	1.944	9.363	25.948	C.2	1	UNK0	0.000	
39	 C11	3.069	9.681	25.173	C.2	1	UNK0	0.000	
40	 C12	2.967	10.548	24.063	C.2	1	UNK0	0.000	
41	  O1	-0.747	11.208	24.482	O.3	1	UNK0	0.000	
42	 C13	-1.913	11.577	23.984	C.3	1	UNK0	0.000	
43	  O2	-0.481	9.634	26.343	O.3	1	UNK0	0.000	
44	 C14	-0.770	10.305	27.604	C.3	1	UNK0	0.000	
45	  O3	1.964	8.513	27.039	O.3	1	UNK0	0.000	
46	 C15	2.502	7.174	26.973	C.3	1	UNK0	0.000	
47	 C16	7.306	11.581	22.942	C.3	1	UNK0	0.000	
48	 C17	7.851	10.500	23.882	C.3	1	UNK0	0.000	
49	 C18	7.829	9.127	23.224	C.3	1	UNK0	0.000	
50	 C19	6.886	8.116	23.891	C.1	1	UNK0	0.000	
51	 C20	6.122	7.320	24.323	C.1	1	UNK0	0.000	
@<TRIPOS>BOND
1 23 24 2
2 23 32 1
3 23 33 1
4 24 25 1
5 25 26 2
6 25 28 1
7 26 27 1
8 26 31 1
9 5 27 1
10 10 27 1
11 28 29 2
12 28 32 1
13 29 30 1
14 8 30 1
15 30 31 2
16 32 47 1
17 7 33 1
18 22 33 1
19 33 40 1
20 34 35 1
21 35 36 1
22 35 40 2
23 36 37 2
24 36 41 1
25 37 38 1
26 37 43 1
27 38 39 2
28 38 45 1
29 13 39 1
30 39 40 1
31 41 42 1
32 11 42 1
33 12 42 1
34 14 42 1
35 43 44 1
36 9 44 1
37 16 44 1
38 17 44 1
39 45 46 1
40 15 46 1
41 18 46 1
42 21 46 1
43 19 47 1
44 20 47 1
45 47 48 1
46 3 48 1
47 6 48 1
48 48 49 1
49 1 49 1
50 2 49 1
51 49 50 1
52 50 51 3
53 4 51 1
@<TRIPOS>SUBSTRUCTURE
1	UNK0	1	GROUP	1 ****	UNK
