# created with PyMOL 2.5.0
@<TRIPOS>MOLECULE
MOL
42 44 1                 
SMALL
USER_CHARGES
@<TRIPOS>ATOM
1	 H06	4.881	9.987	21.656	 H	1	UNK0	0.000	
2	 H07	7.635	9.659	22.581	 H	1	UNK0	0.000	
3	 H11	2.571	11.505	25.199	 H	1	UNK0	0.000	
4	 H12	1.688	10.030	25.728	 H	1	UNK0	0.000	
5	 H09	9.555	13.880	24.271	 H	1	UNK0	0.000	
6	 H01	2.028	9.286	23.322	 H	1	UNK0	0.000	
7	 H14	-1.619	13.335	20.740	 H	1	UNK0	0.000	
8	 H15	-3.290	13.977	22.114	 H	1	UNK0	0.000	
9	 H05	4.030	6.941	22.725	 H	1	UNK0	0.000	
10	 H03	3.008	7.530	25.751	 H	1	UNK0	0.000	
11	 H10	4.382	14.688	24.901	 H	1	UNK0	0.000	
12	 H02	4.195	9.266	25.457	 H	1	UNK0	0.000	
13	 H13	1.221	13.109	21.548	 H	1	UNK0	0.000	
14	 H04	5.754	8.253	23.677	 H	1	UNK0	0.000	
15	 H08	8.839	15.337	24.923	 H	1	UNK0	0.000	
16	  C1	2.764	9.844	23.901	C.3	1	UNK0	0.000	
17	  O1	3.648	10.786	23.164	O.3	1	UNK0	0.000	
18	  C2	3.765	8.893	24.528	C.3	1	UNK0	0.000	
19	  O2	3.128	7.628	24.804	O.3	1	UNK0	0.000	
20	  C3	4.802	8.674	23.352	C.3	1	UNK0	0.000	
21	  O3	4.239	7.792	22.333	O.3	1	UNK0	0.000	
22	  C4	4.826	10.097	22.739	C.3	1	UNK0	0.000	
23	  N1	6.032	10.916	23.191	N.pl3	1	UNK0	0.000	
24	  C5	7.300	10.599	23.020	C.2	1	UNK0	0.000	
25	  N2	8.092	11.516	23.426	N.2	1	UNK0	0.000	
26	  C6	7.263	12.530	23.902	C.2	1	UNK0	0.000	
27	  C7	7.493	13.833	24.457	C.2	1	UNK0	0.000	
28	  N3	8.738	14.400	24.559	N.pl3	1	UNK0	0.000	
29	  N4	6.420	14.555	24.799	N.2	1	UNK0	0.000	
30	  C8	5.220	14.058	24.602	C.2	1	UNK0	0.000	
31	  N5	4.907	12.875	24.079	N.2	1	UNK0	0.000	
32	  C9	5.980	12.156	23.751	C.2	1	UNK0	0.000	
33	 C10	1.958	10.661	24.882	C.3	1	UNK0	0.000	
34	  O4	0.748	11.188	24.287	O.3	1	UNK0	0.000	
35	  P1	0.823	12.542	23.430	P.3	1	UNK0	0.000	
36	  O5	1.572	13.556	24.243	O.co2	1	UNK0	0.000	
37	  O6	1.268	12.293	22.052	O.3	1	UNK0	0.000	
38	  O7	-0.734	13.018	23.425	O.3	1	UNK0	0.000	
39	  P2	-1.970	12.520	22.597	P.3	1	UNK0	0.000	
40	  O8	-1.547	12.461	21.130	O.3	1	UNK0	0.000	
41	  O9	-3.073	13.475	22.903	O.3	1	UNK0	0.000	
42	 O10	-2.138	11.103	23.220	O.co2	1	UNK0	0.000	
@<TRIPOS>BOND
1 6 16 1
2 16 17 1
3 16 18 1
4 16 33 1
5 17 22 1
6 12 18 1
7 18 19 1
8 18 20 1
9 10 19 1
10 14 20 1
11 20 21 1
12 20 22 1
13 9 21 1
14 1 22 1
15 22 23 1
16 23 24 1
17 23 32 1
18 2 24 1
19 24 25 2
20 25 26 1
21 26 27 2
22 26 32 1
23 27 28 1
24 27 29 1
25 5 28 1
26 15 28 1
27 29 30 2
28 11 30 1
29 30 31 1
30 31 32 2
31 3 33 1
32 4 33 1
33 33 34 1
34 34 35 1
35 35 36 2
36 35 37 1
37 35 38 1
38 13 37 1
39 38 39 1
40 39 40 1
41 39 41 1
42 39 42 2
43 7 40 1
44 8 41 1
@<TRIPOS>SUBSTRUCTURE
1	UNK0	1	GROUP	1 ****	UNK
