# created with PyMOL 2.5.0
@<TRIPOS>MOLECULE
MOL
30 32 1                 
SMALL
USER_CHARGES
@<TRIPOS>ATOM
1	  C1	5.009	12.156	23.710	C.2	1	UNK0	0.000	
2	  N1	4.558	13.189	24.361	N.2	1	UNK0	0.000	
3	  C2	5.739	13.976	24.668	C.2	1	UNK0	0.000	
4	  C3	5.877	15.157	25.305	C.2	1	UNK0	0.000	
5	  N2	4.815	15.922	25.919	N.pl3	1	UNK0	0.000	
6	  C4	6.851	13.409	24.152	C.2	1	UNK0	0.000	
7	  N3	8.040	13.927	24.211	N.2	1	UNK0	0.000	
8	  C5	8.148	15.076	24.845	C.2	1	UNK0	0.000	
9	  N4	7.113	15.632	25.376	N.2	1	UNK0	0.000	
10	  N5	6.451	12.222	23.479	N.pl3	1	UNK0	0.000	
11	  F1	9.342	15.700	24.970	 F	1	UNK0	0.000	
12	  C6	4.188	11.013	23.185	C.3	1	UNK0	0.000	
13	 Cl1	1.470	12.448	24.233	Cl	1	UNK0	0.000	
14	  C7	2.115	10.872	24.712	C.2	1	UNK0	0.000	
15	  C8	1.475	10.101	25.661	C.2	1	UNK0	0.000	
16	  C9	1.945	8.900	26.077	C.2	1	UNK0	0.000	
17	 C10	3.077	8.369	25.618	C.2	1	UNK0	0.000	
18	 C11	3.792	9.080	24.667	C.2	1	UNK0	0.000	
19	 C12	3.330	10.318	24.219	C.2	1	UNK0	0.000	
20	  O1	0.295	10.379	26.342	O.3	1	UNK0	0.000	
21	 C13	-0.948	10.591	25.759	C.3	1	UNK0	0.000	
22	  O2	1.175	8.213	27.017	O.3	1	UNK0	0.000	
23	 C14	1.646	8.121	28.355	C.3	1	UNK0	0.000	
24	  O3	3.392	7.080	26.097	O.3	1	UNK0	0.000	
25	 C15	3.194	6.004	25.161	C.3	1	UNK0	0.000	
26	 C16	7.330	11.229	22.834	C.3	1	UNK0	0.000	
27	 C17	7.825	10.216	23.850	C.3	1	UNK0	0.000	
28	 C18	7.990	8.788	23.406	C.3	1	UNK0	0.000	
29	 C19	7.491	7.637	24.294	C.1	1	UNK0	0.000	
30	 C20	7.052	6.778	24.972	C.1	1	UNK0	0.000	
@<TRIPOS>BOND
1 1 2 2
2 1 10 1
3 1 12 1
4 2 3 1
5 3 4 1
6 3 6 2
7 4 5 1
8 4 9 2
9 6 7 1
10 6 10 1
11 7 8 2
12 8 9 1
13 8 11 1
14 10 26 1
15 12 19 1
16 13 14 1
17 14 15 1
18 14 19 2
19 15 16 2
20 15 20 1
21 16 17 1
22 16 22 1
23 17 18 2
24 17 24 1
25 18 19 1
26 20 21 1
27 22 23 1
28 24 25 1
29 26 27 1
30 27 28 1
31 28 29 1
32 29 30 3
@<TRIPOS>SUBSTRUCTURE
1	UNK0	1	GROUP	1 ****	UNK
