# created with PyMOL 2.5.0
@<TRIPOS>MOLECULE
MOL
29 31 1                 
SMALL
USER_CHARGES
@<TRIPOS>ATOM
1	  C1	4.971	12.098	23.807	C.2	1	UNK0	0.000	
2	  N1	4.372	13.089	24.479	N.2	1	UNK0	0.000	
3	  C2	5.305	13.999	24.748	C.2	1	UNK0	0.000	
4	  C3	5.333	15.202	25.403	C.2	1	UNK0	0.000	
5	  N2	4.163	15.781	26.014	N.pl3	1	UNK0	0.000	
6	  C4	6.465	13.560	24.193	C.2	1	UNK0	0.000	
7	  N3	7.638	14.193	24.248	N.2	1	UNK0	0.000	
8	  C5	7.605	15.377	24.885	C.2	1	UNK0	0.000	
9	  N4	6.483	15.871	25.438	N.2	1	UNK0	0.000	
10	  N5	6.291	12.389	23.619	N.pl3	1	UNK0	0.000	
11	  C6	4.252	10.864	23.280	C.3	1	UNK0	0.000	
12	 Cl1	1.516	12.262	22.412	Cl	1	UNK0	0.000	
13	  C7	1.707	11.113	23.744	C.2	1	UNK0	0.000	
14	  C8	0.607	10.770	24.550	C.2	1	UNK0	0.000	
15	  C9	0.727	9.913	25.619	C.2	1	UNK0	0.000	
16	 C10	1.944	9.363	25.948	C.2	1	UNK0	0.000	
17	 C11	3.069	9.681	25.173	C.2	1	UNK0	0.000	
18	 C12	2.967	10.548	24.063	C.2	1	UNK0	0.000	
19	  O1	-0.747	11.208	24.482	O.3	1	UNK0	0.000	
20	 C13	-1.913	11.577	23.984	C.3	1	UNK0	0.000	
21	  O2	-0.481	9.634	26.343	O.3	1	UNK0	0.000	
22	 C14	-0.770	10.305	27.604	C.3	1	UNK0	0.000	
23	  O3	1.964	8.513	27.039	O.3	1	UNK0	0.000	
24	 C15	2.502	7.174	26.973	C.3	1	UNK0	0.000	
25	 C16	7.306	11.581	22.942	C.3	1	UNK0	0.000	
26	 C17	7.851	10.500	23.882	C.3	1	UNK0	0.000	
27	 C18	7.829	9.127	23.224	C.3	1	UNK0	0.000	
28	 C19	6.886	8.116	23.891	C.1	1	UNK0	0.000	
29	 C20	6.122	7.320	24.323	C.1	1	UNK0	0.000	
@<TRIPOS>BOND
1 1 2 2
2 1 10 1
3 1 11 1
4 2 3 1
5 3 4 2
6 3 6 1
7 4 5 1
8 4 9 1
9 6 7 2
10 6 10 1
11 7 8 1
12 8 9 2
13 10 25 1
14 11 18 1
15 12 13 1
16 13 14 1
17 13 18 2
18 14 15 2
19 14 19 1
20 15 16 1
21 15 21 1
22 16 17 2
23 16 23 1
24 17 18 1
25 19 20 1
26 21 22 1
27 23 24 1
28 25 26 1
29 26 27 1
30 27 28 1
31 28 29 3
@<TRIPOS>SUBSTRUCTURE
1	UNK0	1	GROUP	1 ****	UNK
