# created with PyMOL 2.5.0
@<TRIPOS>MOLECULE
MOL
51 53 1                 
SMALL
USER_CHARGES
@<TRIPOS>ATOM
1	 H19	8.591	8.581	24.519	 H	1	UNK0	0.000	
2	 H03	4.615	10.014	23.595	 H	1	UNK0	0.000	
3	 H20	8.250	8.694	22.690	 H	1	UNK0	0.000	
4	 H17	7.356	10.556	24.800	 H	1	UNK0	0.000	
5	 H04	3.795	11.015	22.315	 H	1	UNK0	0.000	
6	 H18	8.926	10.745	23.846	 H	1	UNK0	0.000	
7	 H02	3.692	15.531	25.964	 H	1	UNK0	0.000	
8	 H01	4.836	16.795	26.356	 H	1	UNK0	0.000	
9	 H08	-1.986	10.772	23.239	 H	1	UNK0	0.000	
10	 H21	4.764	6.844	24.194	 H	1	UNK0	0.000	
11	 H06	-2.557	12.384	23.729	 H	1	UNK0	0.000	
12	 H05	3.589	9.142	25.295	 H	1	UNK0	0.000	
13	 H16	6.512	10.527	22.238	 H	1	UNK0	0.000	
14	 H07	-1.168	12.230	22.628	 H	1	UNK0	0.000	
15	 H11	-0.504	11.557	27.561	 H	1	UNK0	0.000	
16	 H10	-0.329	9.929	28.259	 H	1	UNK0	0.000	
17	 H09	-1.941	10.539	27.819	 H	1	UNK0	0.000	
18	 H12	3.300	8.929	27.395	 H	1	UNK0	0.000	
19	 H15	7.831	11.733	22.205	 H	1	UNK0	0.000	
20	 H14	2.844	7.214	27.535	 H	1	UNK0	0.000	
21	 H13	2.203	8.404	28.694	 H	1	UNK0	0.000	
22	  C1	4.825	12.079	23.821	C.2	1	UNK0	0.000	
23	  N1	4.377	13.117	24.467	N.2	1	UNK0	0.000	
24	  C2	5.547	13.949	24.684	C.2	1	UNK0	0.000	
25	  C3	5.682	15.153	25.280	C.2	1	UNK0	0.000	
26	  N2	4.631	15.901	25.932	N.pl3	1	UNK0	0.000	
27	  C4	6.646	13.403	24.122	C.2	1	UNK0	0.000	
28	  N3	7.819	13.960	24.098	N.2	1	UNK0	0.000	
29	  C5	7.925	15.130	24.692	C.2	1	UNK0	0.000	
30	  N4	6.903	15.668	25.266	N.2	1	UNK0	0.000	
31	  N5	6.249	12.184	23.506	N.pl3	1	UNK0	0.000	
32	  F1	9.102	15.795	24.732	 F	1	UNK0	0.000	
33	  C6	4.014	10.896	23.376	C.3	1	UNK0	0.000	
34	 Cl1	1.474	12.771	22.613	Cl	1	UNK0	0.000	
35	  C7	1.541	11.477	23.818	C.2	1	UNK0	0.000	
36	  C8	0.444	11.177	24.599	C.2	1	UNK0	0.000	
37	  C9	0.456	10.212	25.552	C.2	1	UNK0	0.000	
38	 C10	1.536	9.484	25.828	C.2	1	UNK0	0.000	
39	 C11	2.689	9.725	25.097	C.2	1	UNK0	0.000	
40	 C12	2.705	10.710	24.109	C.2	1	UNK0	0.000	
41	  O1	-0.817	11.763	24.574	O.3	1	UNK0	0.000	
42	 C13	-1.678	11.788	23.483	C.3	1	UNK0	0.000	
43	  O2	-0.737	9.992	26.241	O.3	1	UNK0	0.000	
44	 C14	-0.886	10.536	27.546	C.3	1	UNK0	0.000	
45	  O3	1.367	8.472	26.795	O.3	1	UNK0	0.000	
46	 C15	2.497	8.240	27.658	C.3	1	UNK0	0.000	
47	 C16	7.122	11.201	22.840	C.3	1	UNK0	0.000	
48	 C17	7.895	10.393	23.866	C.3	1	UNK0	0.000	
49	 C18	7.930	8.897	23.712	C.3	1	UNK0	0.000	
50	 C19	6.662	8.063	23.953	C.1	1	UNK0	0.000	
51	 C20	5.676	7.429	24.078	C.1	1	UNK0	0.000	
@<TRIPOS>BOND
1 22 23 2
2 22 31 1
3 22 33 1
4 23 24 1
5 24 25 1
6 24 27 2
7 25 26 1
8 25 30 2
9 7 26 1
10 8 26 1
11 27 28 1
12 27 31 1
13 28 29 2
14 29 30 1
15 29 32 1
16 31 47 1
17 2 33 1
18 5 33 1
19 33 40 1
20 34 35 1
21 35 36 1
22 35 40 2
23 36 37 2
24 36 41 1
25 37 38 1
26 37 43 1
27 38 39 2
28 38 45 1
29 12 39 1
30 39 40 1
31 41 42 1
32 9 42 1
33 11 42 1
34 14 42 1
35 43 44 1
36 15 44 1
37 16 44 1
38 17 44 1
39 45 46 1
40 18 46 1
41 20 46 1
42 21 46 1
43 13 47 1
44 19 47 1
45 47 48 1
46 4 48 1
47 6 48 1
48 48 49 1
49 1 49 1
50 3 49 1
51 49 50 1
52 50 51 3
53 10 51 1
@<TRIPOS>SUBSTRUCTURE
1	UNK0	1	GROUP	1 ****	UNK
