# created with PyMOL 2.5.0
@<TRIPOS>MOLECULE
MOL
43 46 1                 
SMALL
USER_CHARGES
@<TRIPOS>ATOM
1	 H17	0.583	10.252	26.134	 H	1	UNK0	0.000	
2	 H18	-2.283	12.116	22.740	 H	1	UNK0	0.000	
3	 H01	9.011	15.790	24.614	 H	1	UNK0	0.000	
4	 H10	8.807	7.102	24.343	 H	1	UNK0	0.000	
5	 H02	4.830	16.706	26.312	 H	1	UNK0	0.000	
6	 H07	8.890	10.508	24.136	 H	1	UNK0	0.000	
7	 H06	7.190	10.253	24.717	 H	1	UNK0	0.000	
8	 H05	6.787	10.741	22.058	 H	1	UNK0	0.000	
9	 H12	6.992	8.619	22.754	 H	1	UNK0	0.000	
10	 H04	8.167	11.793	22.380	 H	1	UNK0	0.000	
11	 H09	7.028	7.100	24.393	 H	1	UNK0	0.000	
12	 H03	3.817	15.336	25.914	 H	1	UNK0	0.000	
13	 H08	7.946	8.215	25.432	 H	1	UNK0	0.000	
14	 H11	8.807	8.661	22.783	 H	1	UNK0	0.000	
15	 H15	2.485	12.188	21.915	 H	1	UNK0	0.000	
16	 H14	4.497	10.573	22.346	 H	1	UNK0	0.000	
17	 H13	4.716	9.886	23.964	 H	1	UNK0	0.000	
18	 H16	2.988	9.873	25.553	 H	1	UNK0	0.000	
19	 H19	-1.802	13.550	23.607	 H	1	UNK0	0.000	
20	  N1	6.458	12.177	23.563	N.pl3	1	UNK0	0.000	
21	  C1	6.803	13.391	24.069	C.2	1	UNK0	0.000	
22	  N2	8.000	14.027	24.043	N.2	1	UNK0	0.000	
23	  C2	8.066	15.246	24.623	C.2	1	UNK0	0.000	
24	  N3	6.985	15.807	25.216	N.2	1	UNK0	0.000	
25	  C3	5.687	13.963	24.660	C.2	1	UNK0	0.000	
26	  C4	5.776	15.194	25.260	C.2	1	UNK0	0.000	
27	  N4	4.715	15.799	25.883	N.pl3	1	UNK0	0.000	
28	  N5	4.691	13.076	24.479	N.2	1	UNK0	0.000	
29	  C5	5.138	11.985	23.823	C.2	1	UNK0	0.000	
30	  C6	7.342	11.252	22.844	C.3	1	UNK0	0.000	
31	  C7	7.872	10.228	23.867	C.3	1	UNK0	0.000	
32	  C8	7.919	7.723	24.459	C.3	1	UNK0	0.000	
33	  C9	7.887	8.780	23.355	C.3	1	UNK0	0.000	
34	 C10	4.360	10.756	23.412	C.3	1	UNK0	0.000	
35	 C11	2.888	10.997	23.708	C.2	1	UNK0	0.000	
36	 C12	2.082	11.763	22.834	C.2	1	UNK0	0.000	
37	 C13	0.753	11.950	23.198	C.2	1	UNK0	0.000	
38	 C14	2.353	10.459	24.889	C.2	1	UNK0	0.000	
39	  O1	-0.251	12.643	22.542	O.3	1	UNK0	0.000	
40	 C15	1.010	10.670	25.222	C.2	1	UNK0	0.000	
41	 C16	0.241	11.429	24.354	C.2	1	UNK0	0.000	
42	  O2	-1.107	11.774	24.453	O.3	1	UNK0	0.000	
43	 C17	-1.463	12.558	23.307	C.3	1	UNK0	0.000	
@<TRIPOS>BOND
1 20 21 1
2 20 29 1
3 20 30 1
4 21 22 1
5 21 25 2
6 22 23 2
7 3 23 1
8 23 24 1
9 24 26 2
10 25 26 1
11 25 28 1
12 26 27 1
13 5 27 1
14 12 27 1
15 28 29 2
16 29 34 1
17 8 30 1
18 10 30 1
19 30 31 1
20 6 31 1
21 7 31 1
22 31 33 1
23 4 32 1
24 11 32 1
25 13 32 1
26 32 33 1
27 9 33 1
28 14 33 1
29 16 34 1
30 17 34 1
31 34 35 1
32 35 36 1
33 35 38 2
34 15 36 1
35 36 37 2
36 37 39 1
37 37 41 1
38 18 38 1
39 38 40 1
40 39 43 1
41 1 40 1
42 40 41 2
43 41 42 1
44 42 43 1
45 2 43 1
46 19 43 1
@<TRIPOS>SUBSTRUCTURE
1	UNK0	1	GROUP	1 ****	UNK
