# created with PyMOL 2.5.0
@<TRIPOS>MOLECULE
MOL
27 29 1                 
SMALL
USER_CHARGES
@<TRIPOS>ATOM
1	  C1	2.764	9.844	23.901	C.3	1	UNK0	0.000	
2	  O1	3.648	10.786	23.164	O.3	1	UNK0	0.000	
3	  C2	3.765	8.893	24.528	C.3	1	UNK0	0.000	
4	  O2	3.128	7.628	24.804	O.3	1	UNK0	0.000	
5	  C3	4.802	8.674	23.352	C.3	1	UNK0	0.000	
6	  O3	4.239	7.792	22.333	O.3	1	UNK0	0.000	
7	  C4	4.826	10.097	22.739	C.3	1	UNK0	0.000	
8	  N1	6.032	10.916	23.191	N.pl3	1	UNK0	0.000	
9	  C5	7.300	10.599	23.020	C.2	1	UNK0	0.000	
10	  N2	8.092	11.516	23.426	N.2	1	UNK0	0.000	
11	  C6	7.263	12.530	23.902	C.2	1	UNK0	0.000	
12	  C7	7.493	13.833	24.457	C.2	1	UNK0	0.000	
13	  N3	8.738	14.400	24.559	N.pl3	1	UNK0	0.000	
14	  N4	6.420	14.555	24.799	N.2	1	UNK0	0.000	
15	  C8	5.220	14.058	24.602	C.2	1	UNK0	0.000	
16	  N5	4.907	12.875	24.079	N.2	1	UNK0	0.000	
17	  C9	5.980	12.156	23.751	C.2	1	UNK0	0.000	
18	 C10	1.958	10.661	24.882	C.3	1	UNK0	0.000	
19	  O4	0.748	11.188	24.287	O.3	1	UNK0	0.000	
20	  P1	0.823	12.542	23.430	P.3	1	UNK0	0.000	
21	  O5	1.572	13.556	24.243	O.co2	1	UNK0	0.000	
22	  O6	1.268	12.293	22.052	O.co2	1	UNK0	0.000	
23	  O7	-0.734	13.018	23.425	O.3	1	UNK0	0.000	
24	  P2	-1.970	12.520	22.597	P.3	1	UNK0	0.000	
25	  O8	-1.547	12.461	21.130	O.co2	1	UNK0	0.000	
26	  O9	-3.073	13.475	22.903	O.co2	1	UNK0	0.000	
27	 O10	-2.138	11.103	23.220	O.co2	1	UNK0	0.000	
@<TRIPOS>BOND
1 1 2 1
2 1 3 1
3 1 18 1
4 2 7 1
5 3 4 1
6 3 5 1
7 5 6 1
8 5 7 1
9 7 8 1
10 8 9 1
11 8 17 1
12 9 10 2
13 10 11 1
14 11 12 2
15 11 17 1
16 12 13 1
17 12 14 1
18 14 15 2
19 15 16 1
20 16 17 2
21 18 19 1
22 19 20 1
23 20 21 2
24 20 22 1
25 20 23 1
26 23 24 1
27 24 25 1
28 24 26 1
29 24 27 2
@<TRIPOS>SUBSTRUCTURE
1	UNK0	1	GROUP	1 ****	UNK
