# created with PyMOL 2.5.0
@<TRIPOS>MOLECULE
MOL
25 27 1                 
SMALL
USER_CHARGES
@<TRIPOS>ATOM
1	  C1	4.935	12.205	23.881	C.2	1	UNK0	0.000	
2	  N1	4.578	13.335	24.512	N.2	1	UNK0	0.000	
3	  C2	5.719	14.038	24.649	C.2	1	UNK0	0.000	
4	  C3	5.993	15.250	25.265	C.2	1	UNK0	0.000	
5	  N2	5.005	16.040	25.928	N.pl3	1	UNK0	0.000	
6	  C4	6.745	13.323	24.079	C.2	1	UNK0	0.000	
7	  N3	8.003	13.765	24.010	N.2	1	UNK0	0.000	
8	  C5	8.270	14.947	24.618	C.2	1	UNK0	0.000	
9	  N4	7.249	15.763	25.237	N.2	1	UNK0	0.000	
10	  N5	6.226	12.218	23.618	N.pl3	1	UNK0	0.000	
11	  C6	4.020	11.069	23.443	C.3	1	UNK0	0.000	
12	  C7	0.693	10.650	25.413	C.2	1	UNK0	0.000	
13	  C8	2.055	10.550	25.047	C.2	1	UNK0	0.000	
14	  C9	-0.175	11.402	24.593	C.2	1	UNK0	0.000	
15	 C10	0.373	12.021	23.458	C.2	1	UNK0	0.000	
16	 C11	1.701	11.878	23.085	C.2	1	UNK0	0.000	
17	 C12	2.568	11.156	23.880	C.2	1	UNK0	0.000	
18	 C13	2.368	8.670	26.637	C.3	1	UNK0	0.000	
19	  O1	2.902	9.793	25.863	O.3	1	UNK0	0.000	
20	  O2	-0.402	12.795	22.552	O.3	1	UNK0	0.000	
21	 C14	-1.786	12.576	22.328	C.3	1	UNK0	0.000	
22	 C15	6.874	11.098	22.900	C.3	1	UNK0	0.000	
23	 C16	7.824	10.243	23.751	C.3	1	UNK0	0.000	
24	 C17	8.054	8.756	23.484	C.3	1	UNK0	0.000	
25	 C18	7.781	7.618	24.513	C.3	1	UNK0	0.000	
@<TRIPOS>BOND
1 1 2 2
2 1 10 1
3 1 11 1
4 2 3 1
5 3 4 2
6 3 6 1
7 4 5 1
8 4 9 1
9 6 7 2
10 6 10 1
11 7 8 1
12 8 9 2
13 10 22 1
14 11 17 1
15 12 13 2
16 12 14 1
17 13 17 1
18 13 19 1
19 14 15 2
20 15 16 1
21 15 20 1
22 16 17 2
23 18 19 1
24 20 21 1
25 22 23 1
26 23 24 1
27 24 25 1
@<TRIPOS>SUBSTRUCTURE
1	UNK0	1	GROUP	1 ****	UNK
