# created with PyMOL 2.5.0
@<TRIPOS>MOLECULE
MOL
42 44 1                 
SMALL
USER_CHARGES
@<TRIPOS>ATOM
1	 H06	3.150	11.177	22.229	 H	1	UNK0	0.000	
2	 H07	1.686	13.198	24.502	 H	1	UNK0	0.000	
3	 H11	1.140	10.040	26.240	 H	1	UNK0	0.000	
4	 H12	0.919	8.280	25.940	 H	1	UNK0	0.000	
5	 H09	5.195	16.264	26.126	 H	1	UNK0	0.000	
6	 H01	1.671	8.532	23.722	 H	1	UNK0	0.000	
7	 H14	-2.979	14.178	22.759	 H	1	UNK0	0.000	
8	 H15	-2.593	10.921	21.644	 H	1	UNK0	0.000	
9	 H05	3.479	9.278	21.894	 H	1	UNK0	0.000	
10	 H03	3.838	7.510	23.996	 H	1	UNK0	0.000	
11	 H10	8.023	12.542	23.686	 H	1	UNK0	0.000	
12	 H02	3.543	9.665	25.835	 H	1	UNK0	0.000	
13	 H13	0.191	12.129	26.295	 H	1	UNK0	0.000	
14	 H04	5.168	10.207	23.915	 H	1	UNK0	0.000	
15	 H08	6.940	16.246	26.007	 H	1	UNK0	0.000	
16	  C1	1.919	9.351	24.397	C.3	1	UNK0	0.000	
17	  O1	1.876	10.732	23.847	O.3	1	UNK0	0.000	
18	  C2	3.361	9.233	24.851	C.3	1	UNK0	0.000	
19	  O2	3.747	7.844	24.891	O.3	1	UNK0	0.000	
20	  C3	4.145	9.927	23.662	C.3	1	UNK0	0.000	
21	  O3	4.189	9.046	22.498	O.3	1	UNK0	0.000	
22	  C4	3.160	11.071	23.314	C.3	1	UNK0	0.000	
23	  N1	3.573	12.412	23.915	N.pl3	1	UNK0	0.000	
24	  C5	2.771	13.299	24.469	C.2	1	UNK0	0.000	
25	  N2	3.407	14.291	24.964	N.2	1	UNK0	0.000	
26	  C6	4.751	14.023	24.714	C.2	1	UNK0	0.000	
27	  C7	5.980	14.695	25.026	C.2	1	UNK0	0.000	
28	  N3	6.044	15.835	25.787	N.pl3	1	UNK0	0.000	
29	  N4	7.117	14.116	24.625	N.2	1	UNK0	0.000	
30	  C8	7.066	12.967	23.990	C.2	1	UNK0	0.000	
31	  N5	5.983	12.263	23.674	N.2	1	UNK0	0.000	
32	  C9	4.854	12.850	24.064	C.2	1	UNK0	0.000	
33	 C10	0.893	9.278	25.501	C.3	1	UNK0	0.000	
34	  O4	-0.447	9.542	25.019	O.3	1	UNK0	0.000	
35	  P1	-1.081	10.999	25.231	P.3	1	UNK0	0.000	
36	  O5	-2.121	10.894	26.307	O.co2	1	UNK0	0.000	
37	  O6	-0.044	12.032	25.369	O.3	1	UNK0	0.000	
38	  O7	-1.887	11.217	23.833	O.3	1	UNK0	0.000	
39	  P2	-1.913	12.418	22.825	P.3	1	UNK0	0.000	
40	  O8	-2.826	13.493	23.414	O.3	1	UNK0	0.000	
41	  O9	-2.363	11.845	21.525	O.3	1	UNK0	0.000	
42	 O10	-0.412	12.826	22.878	O.co2	1	UNK0	0.000	
@<TRIPOS>BOND
1 6 16 1
2 16 17 1
3 16 18 1
4 16 33 1
5 17 22 1
6 12 18 1
7 18 19 1
8 18 20 1
9 10 19 1
10 14 20 1
11 20 21 1
12 20 22 1
13 9 21 1
14 1 22 1
15 22 23 1
16 23 24 1
17 23 32 1
18 2 24 1
19 24 25 2
20 25 26 1
21 26 27 2
22 26 32 1
23 27 28 1
24 27 29 1
25 5 28 1
26 15 28 1
27 29 30 2
28 11 30 1
29 30 31 1
30 31 32 2
31 3 33 1
32 4 33 1
33 33 34 1
34 34 35 1
35 35 36 2
36 35 37 1
37 35 38 1
38 13 37 1
39 38 39 1
40 39 40 1
41 39 41 1
42 39 42 2
43 7 40 1
44 8 41 1
@<TRIPOS>SUBSTRUCTURE
1	UNK0	1	GROUP	1 ****	UNK
