# created with PyMOL 2.5.0
@<TRIPOS>MOLECULE
MOL
23 25 1                 
SMALL
USER_CHARGES
@<TRIPOS>ATOM
1	  N1	6.982	13.649	24.465	N.pl3	1	UNK0	0.000	
2	  C1	5.928	14.342	24.863	C.2	1	UNK0	0.000	
3	  N2	6.034	15.591	25.484	N.2	1	UNK0	0.000	
4	  C2	4.775	16.229	25.849	C.2	1	UNK0	0.000	
5	  N3	3.596	15.521	25.464	N.2	1	UNK0	0.000	
6	  C3	4.643	13.676	24.549	C.2	1	UNK0	0.000	
7	  C4	3.423	14.322	24.863	C.2	1	UNK0	0.000	
8	  N4	2.257	13.713	24.552	N.pl3	1	UNK0	0.000	
9	  N5	5.011	12.555	23.868	N.2	1	UNK0	0.000	
10	  C5	6.339	12.601	23.943	C.2	1	UNK0	0.000	
11	  C6	8.388	13.970	24.614	C.3	1	UNK0	0.000	
12	  C7	8.750	14.237	26.064	C.3	1	UNK0	0.000	
13	  C8	11.112	14.920	26.622	C.3	1	UNK0	0.000	
14	  C9	9.623	15.233	26.291	C.3	1	UNK0	0.000	
15	 C10	7.343	11.637	23.313	C.3	1	UNK0	0.000	
16	 C11	7.119	10.157	23.576	C.2	1	UNK0	0.000	
17	 C12	5.884	9.531	23.713	C.2	1	UNK0	0.000	
18	 C13	5.813	8.155	23.940	C.2	1	UNK0	0.000	
19	 C14	8.356	9.472	23.684	C.2	1	UNK0	0.000	
20	 C15	8.257	8.088	23.928	C.2	1	UNK0	0.000	
21	 C16	7.014	7.441	24.046	C.2	1	UNK0	0.000	
22	  O1	6.943	6.078	24.306	O.3	1	UNK0	0.000	
23	 C17	6.215	5.567	25.419	C.3	1	UNK0	0.000	
@<TRIPOS>BOND
1 1 2 1
2 1 10 1
3 1 11 1
4 2 3 1
5 2 6 2
6 3 4 2
7 4 5 1
8 5 7 2
9 6 7 1
10 6 9 1
11 7 8 1
12 9 10 2
13 10 15 1
14 11 12 1
15 12 14 1
16 13 14 1
17 15 16 1
18 16 17 2
19 16 19 1
20 17 18 1
21 18 21 2
22 19 20 2
23 20 21 1
24 21 22 1
25 22 23 1
@<TRIPOS>SUBSTRUCTURE
1	UNK0	1	GROUP	1 ****	UNK
