# created with PyMOL 2.5.0
@<TRIPOS>MOLECULE
MOL
28 30 1                 
SMALL
USER_CHARGES
@<TRIPOS>ATOM
1	  C1	5.176	12.101	23.712	C.2	1	UNK0	0.000	
2	  N1	4.791	13.185	24.378	N.2	1	UNK0	0.000	
3	  C2	5.869	13.907	24.601	C.2	1	UNK0	0.000	
4	  C3	6.057	15.125	25.242	C.2	1	UNK0	0.000	
5	  N2	4.957	15.855	25.883	N.pl3	1	UNK0	0.000	
6	  C4	6.943	13.264	24.006	C.2	1	UNK0	0.000	
7	  N3	8.177	13.806	24.045	N.2	1	UNK0	0.000	
8	  C5	8.309	14.993	24.673	C.2	1	UNK0	0.000	
9	  N4	7.276	15.643	25.253	N.2	1	UNK0	0.000	
10	  N5	6.481	12.138	23.468	N.pl3	1	UNK0	0.000	
11	  C6	4.254	11.005	23.253	C.3	1	UNK0	0.000	
12	  C7	1.103	10.535	25.434	C.2	1	UNK0	0.000	
13	  C8	2.422	10.365	24.998	C.2	1	UNK0	0.000	
14	  C9	0.255	11.401	24.757	C.2	1	UNK0	0.000	
15	 C10	0.682	12.106	23.657	C.2	1	UNK0	0.000	
16	 C11	1.983	11.938	23.221	C.2	1	UNK0	0.000	
17	 C12	2.858	11.083	23.859	C.2	1	UNK0	0.000	
18	 Cl1	3.468	9.250	25.847	Cl	1	UNK0	0.000	
19	 C13	0.187	8.454	26.592	C.3	1	UNK0	0.000	
20	  O1	0.491	9.827	26.520	O.3	1	UNK0	0.000	
21	  O2	-1.065	11.551	25.245	O.3	1	UNK0	0.000	
22	 C14	-2.136	10.849	24.591	C.3	1	UNK0	0.000	
23	  O3	-0.198	13.026	23.006	O.3	1	UNK0	0.000	
24	 C15	-0.574	12.885	21.623	C.3	1	UNK0	0.000	
25	 C16	7.248	11.115	22.747	C.3	1	UNK0	0.000	
26	 C17	8.101	10.329	23.716	C.2	1	UNK0	0.000	
27	 C18	7.735	8.903	24.122	C.2	1	UNK0	0.000	
28	 C19	6.593	8.184	23.424	C.3	1	UNK0	0.000	
@<TRIPOS>BOND
1 1 2 2
2 1 10 1
3 1 11 1
4 2 3 1
5 3 4 2
6 3 6 1
7 4 5 1
8 4 9 1
9 6 7 2
10 6 10 1
11 7 8 1
12 8 9 2
13 10 25 1
14 11 17 1
15 12 13 2
16 12 14 1
17 12 20 1
18 13 17 1
19 13 18 1
20 14 15 2
21 14 21 1
22 15 16 1
23 15 23 1
24 16 17 2
25 19 20 1
26 21 22 1
27 23 24 1
28 25 26 1
29 26 27 2
30 27 28 1
@<TRIPOS>SUBSTRUCTURE
1	UNK0	1	GROUP	1 ****	UNK
