# created with PyMOL 2.5.0
@<TRIPOS>MOLECULE
MOL
51 53 1                 
SMALL
USER_CHARGES
@<TRIPOS>ATOM
1	 H19	9.186	8.704	23.409	 H	1	UNK0	0.000	
2	 H03	4.825	9.944	23.448	 H	1	UNK0	0.000	
3	 H20	7.615	8.719	22.405	 H	1	UNK0	0.000	
4	 H17	7.185	10.231	24.585	 H	1	UNK0	0.000	
5	 H04	4.039	10.939	22.142	 H	1	UNK0	0.000	
6	 H18	8.902	10.658	24.055	 H	1	UNK0	0.000	
7	 H02	3.661	15.371	25.894	 H	1	UNK0	0.000	
8	 H01	4.750	16.663	26.348	 H	1	UNK0	0.000	
9	 H08	0.143	6.495	26.371	 H	1	UNK0	0.000	
10	 H21	6.805	5.960	25.498	 H	1	UNK0	0.000	
11	 H06	-0.621	7.273	24.965	 H	1	UNK0	0.000	
12	 H05	2.157	12.458	23.091	 H	1	UNK0	0.000	
13	 H16	6.778	10.667	22.016	 H	1	UNK0	0.000	
14	 H07	1.069	6.724	24.868	 H	1	UNK0	0.000	
15	 H11	-0.682	11.730	26.995	 H	1	UNK0	0.000	
16	 H10	-0.422	10.084	27.621	 H	1	UNK0	0.000	
17	 H09	-2.065	10.631	27.208	 H	1	UNK0	0.000	
18	 H12	-2.105	12.976	23.215	 H	1	UNK0	0.000	
19	 H15	8.127	11.802	22.308	 H	1	UNK0	0.000	
20	 H14	-1.519	11.332	22.867	 H	1	UNK0	0.000	
21	 H13	-0.675	12.742	22.181	 H	1	UNK0	0.000	
22	  C1	4.970	12.011	23.707	C.2	1	UNK0	0.000	
23	  N1	4.469	13.018	24.363	N.2	1	UNK0	0.000	
24	  C2	5.604	13.883	24.633	C.2	1	UNK0	0.000	
25	  C3	5.681	15.075	25.259	C.2	1	UNK0	0.000	
26	  N2	4.588	15.773	25.898	N.pl3	1	UNK0	0.000	
27	  C4	6.736	13.387	24.090	C.2	1	UNK0	0.000	
28	  N3	7.889	13.983	24.112	N.2	1	UNK0	0.000	
29	  C5	7.939	15.141	24.736	C.2	1	UNK0	0.000	
30	  N4	6.884	15.632	25.292	N.2	1	UNK0	0.000	
31	  N5	6.398	12.170	23.435	N.pl3	1	UNK0	0.000	
32	  F1	9.091	15.843	24.824	 F	1	UNK0	0.000	
33	  C6	4.212	10.813	23.211	C.3	1	UNK0	0.000	
34	 Cl1	3.731	8.104	24.936	Cl	1	UNK0	0.000	
35	  C7	2.595	9.434	24.670	C.2	1	UNK0	0.000	
36	  C8	1.317	9.391	25.190	C.2	1	UNK0	0.000	
37	  C9	0.405	10.374	24.992	C.2	1	UNK0	0.000	
38	 C10	0.658	11.458	24.261	C.2	1	UNK0	0.000	
39	 C11	1.916	11.580	23.691	C.2	1	UNK0	0.000	
40	 C12	2.876	10.584	23.880	C.2	1	UNK0	0.000	
41	  O1	0.738	8.397	25.973	O.3	1	UNK0	0.000	
42	 C13	0.310	7.155	25.520	C.3	1	UNK0	0.000	
43	  O2	-0.837	10.215	25.608	O.3	1	UNK0	0.000	
44	 C14	-1.011	10.693	26.935	C.3	1	UNK0	0.000	
45	  O3	-0.370	12.422	24.209	O.3	1	UNK0	0.000	
46	 C15	-1.219	12.364	23.048	C.3	1	UNK0	0.000	
47	 C16	7.322	11.233	22.772	C.3	1	UNK0	0.000	
48	 C17	7.921	10.271	23.782	C.3	1	UNK0	0.000	
49	 C18	8.104	8.835	23.372	C.3	1	UNK0	0.000	
50	 C19	7.585	7.701	24.270	C.1	1	UNK0	0.000	
51	 C20	7.180	6.796	24.908	C.1	1	UNK0	0.000	
@<TRIPOS>BOND
1 22 23 2
2 22 31 1
3 22 33 1
4 23 24 1
5 24 25 1
6 24 27 2
7 25 26 1
8 25 30 2
9 7 26 1
10 8 26 1
11 27 28 1
12 27 31 1
13 28 29 2
14 29 30 1
15 29 32 1
16 31 47 1
17 2 33 1
18 5 33 1
19 33 40 1
20 34 35 1
21 35 36 1
22 35 40 2
23 36 37 2
24 36 41 1
25 37 38 1
26 37 43 1
27 38 39 2
28 38 45 1
29 12 39 1
30 39 40 1
31 41 42 1
32 9 42 1
33 11 42 1
34 14 42 1
35 43 44 1
36 15 44 1
37 16 44 1
38 17 44 1
39 45 46 1
40 18 46 1
41 20 46 1
42 21 46 1
43 13 47 1
44 19 47 1
45 47 48 1
46 4 48 1
47 6 48 1
48 48 49 1
49 1 49 1
50 3 49 1
51 49 50 1
52 50 51 3
53 10 51 1
@<TRIPOS>SUBSTRUCTURE
1	UNK0	1	GROUP	1 ****	UNK
