# created with PyMOL 2.5.0
@<TRIPOS>MOLECULE
MOL
92 93 1                 
SMALL
USER_CHARGES
@<TRIPOS>ATOM
1	 H06	0.828	7.897	24.002	 H	1	UNK0	0.000	
2	 H08	1.889	4.922	26.672	 H	1	UNK0	0.000	
3	 H10	1.417	10.341	29.559	 H	1	UNK0	0.000	
4	 H07	0.102	6.529	23.123	 H	1	UNK0	0.000	
5	 H12	-3.712	10.226	25.040	 H	1	UNK0	0.000	
6	 H11	-1.331	9.935	29.296	 H	1	UNK0	0.000	
7	 H15	0.134	11.031	26.120	 H	1	UNK0	0.000	
8	 H14	-3.193	8.615	25.589	 H	1	UNK0	0.000	
9	 H09	0.126	5.339	26.483	 H	1	UNK0	0.000	
10	 H16	-0.502	9.824	23.338	 H	1	UNK0	0.000	
11	 H19	3.405	12.290	23.040	 H	1	UNK0	0.000	
12	 H18	1.326	12.294	25.260	 H	1	UNK0	0.000	
13	 H29	5.678	6.025	22.388	 H	1	UNK0	0.000	
14	 H17	1.162	11.169	22.462	 H	1	UNK0	0.000	
15	 H24	4.968	8.285	24.880	 H	1	UNK0	0.000	
16	 H23	4.444	10.466	22.743	 H	1	UNK0	0.000	
17	 H38	3.818	7.072	32.850	 H	1	UNK0	0.000	
18	 H22	4.283	11.338	26.693	 H	1	UNK0	0.000	
19	 H13	-2.518	9.305	24.094	 H	1	UNK0	0.000	
20	 H21	4.206	9.593	26.349	 H	1	UNK0	0.000	
21	 H37	2.521	4.762	30.116	 H	1	UNK0	0.000	
22	 H26	6.797	9.650	22.795	 H	1	UNK0	0.000	
23	 H32	4.058	7.189	20.369	 H	1	UNK0	0.000	
24	 H31	3.499	5.535	20.018	 H	1	UNK0	0.000	
25	 H30	4.855	5.797	21.142	 H	1	UNK0	0.000	
26	 H33	4.428	6.744	27.247	 H	1	UNK0	0.000	
27	 H36	4.183	5.221	30.999	 H	1	UNK0	0.000	
28	 H35	4.066	4.589	28.493	 H	1	UNK0	0.000	
29	 H34	5.129	5.886	29.310	 H	1	UNK0	0.000	
30	 H20	2.710	10.553	26.417	 H	1	UNK0	0.000	
31	 H41	0.867	7.043	30.339	 H	1	UNK0	0.000	
32	 H40	3.312	5.368	32.762	 H	1	UNK0	0.000	
33	 H39	2.126	6.628	33.177	 H	1	UNK0	0.000	
34	 H42	0.904	5.527	31.271	 H	1	UNK0	0.000	
35	 H45	0.644	14.657	22.001	 H	1	UNK0	0.000	
36	 H44	-0.496	14.497	23.358	 H	1	UNK0	0.000	
37	 H43	0.925	7.093	32.117	 H	1	UNK0	0.000	
38	 H25	7.261	8.205	23.724	 H	1	UNK0	0.000	
39	 H28	4.808	8.131	21.923	 H	1	UNK0	0.000	
40	 H48	5.105	14.751	26.168	 H	1	UNK0	0.000	
41	 H47	6.664	14.698	25.376	 H	1	UNK0	0.000	
42	 H27	6.987	9.750	24.562	 H	1	UNK0	0.000	
43	 H46	-0.025	13.061	22.418	 H	1	UNK0	0.000	
44	 H01	2.617	8.172	22.958	 H	1	UNK0	0.000	
45	 H02	2.934	7.334	25.115	 H	1	UNK0	0.000	
46	 H03	3.537	5.668	24.464	 H	1	UNK0	0.000	
47	 H04	1.341	4.946	24.313	 H	1	UNK0	0.000	
48	 H05	-0.489	6.959	24.746	 H	1	UNK0	0.000	
49	  C1	3.186	7.246	23.039	C.3	1	UNK0	0.000	
50	  C2	2.852	6.514	24.401	C.3	1	UNK0	0.000	
51	  C3	1.430	5.945	24.739	C.3	1	UNK0	0.000	
52	  C4	0.391	6.903	24.105	C.3	1	UNK0	0.000	
53	  C5	1.158	5.669	26.364	C.3	1	UNK0	0.000	
54	  C6	1.383	6.909	27.292	C.2	1	UNK0	0.000	
55	  C7	2.536	7.314	28.001	C.2	1	UNK0	0.000	
56	  C8	2.604	8.572	28.841	C.2	1	UNK0	0.000	
57	  O1	3.666	8.848	29.406	O.2	1	UNK0	0.000	
58	  C9	1.382	9.431	28.959	C.2	1	UNK0	0.000	
59	 C10	0.210	9.079	28.314	C.2	1	UNK0	0.000	
60	  N1	-1.039	9.771	28.343	N.pl3	1	UNK0	0.000	
61	 C11	-2.014	10.307	27.412	C.2	1	UNK0	0.000	
62	  O2	-2.928	10.796	27.876	O.2	1	UNK0	0.000	
63	 C12	-1.755	10.166	25.895	C.2	1	UNK0	0.000	
64	 C13	-2.872	9.534	25.099	C.3	1	UNK0	0.000	
65	 C14	-0.549	10.597	25.390	C.2	1	UNK0	0.000	
66	 C15	-0.050	10.555	24.009	C.2	1	UNK0	0.000	
67	 C16	0.903	11.331	23.508	C.2	1	UNK0	0.000	
68	 C17	1.663	12.408	24.230	C.3	1	UNK0	0.000	
69	 C18	3.228	12.258	24.115	C.3	1	UNK0	0.000	
70	 C19	3.878	10.852	24.638	C.2	1	UNK0	0.000	
71	 C20	3.761	10.563	26.131	C.3	1	UNK0	0.000	
72	 C21	4.466	10.084	23.764	C.2	1	UNK0	0.000	
73	 C22	5.174	8.753	23.917	C.3	1	UNK0	0.000	
74	 C23	6.664	9.116	23.736	C.3	1	UNK0	0.000	
75	 C24	4.696	7.693	22.915	C.3	1	UNK0	0.000	
76	  O3	5.487	6.489	23.206	O.3	1	UNK0	0.000	
77	 C25	0.168	7.786	27.443	C.2	1	UNK0	0.000	
78	  O4	-0.886	7.474	26.859	O.2	1	UNK0	0.000	
79	 C26	3.903	6.194	20.787	C.3	1	UNK0	0.000	
80	  O5	2.865	6.283	22.020	O.3	1	UNK0	0.000	
81	  N2	3.773	6.561	27.993	N.pl3	1	UNK0	0.000	
82	 C27	4.142	5.559	28.985	C.3	1	UNK0	0.000	
83	 C28	3.342	5.442	30.341	C.3	1	UNK0	0.000	
84	  N3	2.694	6.562	31.183	N.3	1	UNK0	0.000	
85	 C29	3.006	6.397	32.577	C.3	1	UNK0	0.000	
86	 C30	1.262	6.556	31.231	C.3	1	UNK0	0.000	
87	  O6	1.377	13.797	23.682	O.3	1	UNK0	0.000	
88	 C31	0.320	14.014	22.819	C.3	1	UNK0	0.000	
89	  O7	3.855	13.292	24.828	O.3	1	UNK0	0.000	
90	 C32	5.208	13.537	24.520	C.2	1	UNK0	0.000	
91	  N4	5.700	14.401	25.431	N.pl3	1	UNK0	0.000	
92	  O8	5.848	13.057	23.595	O.co2	1	UNK0	0.000	
@<TRIPOS>BOND
1 44 49 1
2 49 50 1
3 49 75 1
4 49 80 1
5 45 50 1
6 46 50 1
7 50 51 1
8 47 51 1
9 51 52 1
10 51 53 1
11 1 52 1
12 4 52 1
13 48 52 1
14 2 53 1
15 9 53 1
16 53 54 1
17 54 55 2
18 54 77 1
19 55 56 1
20 55 81 1
21 56 57 2
22 56 58 1
23 3 58 1
24 58 59 2
25 59 60 1
26 59 77 1
27 6 60 1
28 60 61 1
29 61 62 2
30 61 63 1
31 63 64 1
32 63 65 2
33 5 64 1
34 8 64 1
35 19 64 1
36 7 65 1
37 65 66 1
38 10 66 1
39 66 67 2
40 14 67 1
41 67 68 1
42 12 68 1
43 68 69 1
44 68 87 1
45 11 69 1
46 69 70 1
47 69 89 1
48 70 71 1
49 70 72 2
50 18 71 1
51 20 71 1
52 30 71 1
53 16 72 1
54 72 73 1
55 15 73 1
56 73 74 1
57 73 75 1
58 22 74 1
59 38 74 1
60 42 74 1
61 39 75 1
62 75 76 1
63 13 76 1
64 77 78 2
65 23 79 1
66 24 79 1
67 25 79 1
68 79 80 1
69 26 81 1
70 81 82 1
71 28 82 1
72 29 82 1
73 82 83 1
74 21 83 1
75 27 83 1
76 83 84 1
77 84 85 1
78 84 86 1
79 17 85 1
80 32 85 1
81 33 85 1
82 31 86 1
83 34 86 1
84 37 86 1
85 87 88 1
86 35 88 1
87 36 88 1
88 43 88 1
89 89 90 1
90 90 91 1
91 90 92 2
92 40 91 1
93 41 91 1
@<TRIPOS>SUBSTRUCTURE
1	UNK0	1	GROUP	1 ****	UNK
