# created with PyMOL 2.5.0
@<TRIPOS>MOLECULE
MOL
43 46 1                 
SMALL
USER_CHARGES
@<TRIPOS>ATOM
1	 H17	5.364	7.638	24.206	 H	1	UNK0	0.000	
2	 H18	4.745	6.943	19.480	 H	1	UNK0	0.000	
3	 H01	4.689	17.205	26.275	 H	1	UNK0	0.000	
4	 H10	11.713	14.643	25.497	 H	1	UNK0	0.000	
5	 H02	1.691	14.034	24.808	 H	1	UNK0	0.000	
6	 H07	7.936	14.950	26.676	 H	1	UNK0	0.000	
7	 H06	9.072	13.535	26.721	 H	1	UNK0	0.000	
8	 H05	9.291	13.458	24.419	 H	1	UNK0	0.000	
9	 H12	10.025	16.240	25.854	 H	1	UNK0	0.000	
10	 H04	8.829	15.145	24.189	 H	1	UNK0	0.000	
11	 H09	11.318	13.754	26.989	 H	1	UNK0	0.000	
12	 H03	2.636	12.721	24.141	 H	1	UNK0	0.000	
13	 H08	12.117	15.342	27.083	 H	1	UNK0	0.000	
14	 H11	9.887	15.776	27.605	 H	1	UNK0	0.000	
15	 H15	6.763	11.115	20.872	 H	1	UNK0	0.000	
16	 H14	8.296	12.026	22.622	 H	1	UNK0	0.000	
17	 H13	8.408	11.273	24.222	 H	1	UNK0	0.000	
18	 H16	6.793	9.564	24.927	 H	1	UNK0	0.000	
19	 H19	3.339	7.895	19.873	 H	1	UNK0	0.000	
20	  N1	7.225	13.828	24.589	N.pl3	1	UNK0	0.000	
21	  C1	6.122	14.535	24.955	C.2	1	UNK0	0.000	
22	  N2	6.035	15.748	25.553	N.2	1	UNK0	0.000	
23	  C2	4.797	16.229	25.802	C.2	1	UNK0	0.000	
24	  N3	3.686	15.524	25.478	N.2	1	UNK0	0.000	
25	  C3	4.991	13.813	24.605	C.2	1	UNK0	0.000	
26	  C4	3.741	14.308	24.881	C.2	1	UNK0	0.000	
27	  N4	2.588	13.628	24.584	N.pl3	1	UNK0	0.000	
28	  N5	5.449	12.690	24.022	N.2	1	UNK0	0.000	
29	  C5	6.798	12.676	24.008	C.2	1	UNK0	0.000	
30	  C6	8.621	14.244	24.766	C.3	1	UNK0	0.000	
31	  C7	8.842	14.500	26.269	C.3	1	UNK0	0.000	
32	  C8	11.391	14.742	26.534	C.3	1	UNK0	0.000	
33	  C9	10.026	15.428	26.581	C.3	1	UNK0	0.000	
34	 C10	7.719	11.615	23.450	C.3	1	UNK0	0.000	
35	 C11	6.869	10.453	22.957	C.2	1	UNK0	0.000	
36	 C12	6.465	10.365	21.605	C.2	1	UNK0	0.000	
37	 C13	5.670	9.280	21.250	C.2	1	UNK0	0.000	
38	 C14	6.473	9.480	23.888	C.2	1	UNK0	0.000	
39	  O1	5.139	8.943	20.016	O.3	1	UNK0	0.000	
40	 C15	5.672	8.402	23.492	C.2	1	UNK0	0.000	
41	 C16	5.284	8.340	22.164	C.2	1	UNK0	0.000	
42	  O2	4.501	7.378	21.526	O.3	1	UNK0	0.000	
43	 C17	4.382	7.729	20.141	C.3	1	UNK0	0.000	
@<TRIPOS>BOND
1 20 21 1
2 20 29 1
3 20 30 1
4 21 22 1
5 21 25 2
6 22 23 2
7 3 23 1
8 23 24 1
9 24 26 2
10 25 26 1
11 25 28 1
12 26 27 1
13 5 27 1
14 12 27 1
15 28 29 2
16 29 34 1
17 8 30 1
18 10 30 1
19 30 31 1
20 6 31 1
21 7 31 1
22 31 33 1
23 4 32 1
24 11 32 1
25 13 32 1
26 32 33 1
27 9 33 1
28 14 33 1
29 16 34 1
30 17 34 1
31 34 35 1
32 35 36 1
33 35 38 2
34 15 36 1
35 36 37 2
36 37 39 1
37 37 41 1
38 18 38 1
39 38 40 1
40 39 43 1
41 1 40 1
42 40 41 2
43 41 42 1
44 42 43 1
45 2 43 1
46 19 43 1
@<TRIPOS>SUBSTRUCTURE
1	UNK0	1	GROUP	1 ****	UNK
