# created with PyMOL 2.5.0
@<TRIPOS>MOLECULE
MOL
23 25 1                 
SMALL
USER_CHARGES
@<TRIPOS>ATOM
1	  N1	6.238	12.236	23.595	N.pl3	1	UNK0	0.000	
2	  C1	6.694	13.373	24.095	C.2	1	UNK0	0.000	
3	  N2	8.027	13.777	23.963	N.2	1	UNK0	0.000	
4	  C2	8.365	15.062	24.561	C.2	1	UNK0	0.000	
5	  N3	7.271	15.771	25.147	N.2	1	UNK0	0.000	
6	  C3	5.646	14.174	24.767	C.2	1	UNK0	0.000	
7	  C4	5.969	15.443	25.305	C.2	1	UNK0	0.000	
8	  N4	4.998	16.174	25.897	N.pl3	1	UNK0	0.000	
9	  N5	4.505	13.455	24.570	N.2	1	UNK0	0.000	
10	  C5	4.961	12.358	23.971	C.2	1	UNK0	0.000	
11	  C6	6.965	11.197	22.892	C.3	1	UNK0	0.000	
12	  C7	7.729	10.303	23.853	C.3	1	UNK0	0.000	
13	  C8	7.786	7.833	24.354	C.3	1	UNK0	0.000	
14	  C9	8.006	9.060	23.422	C.3	1	UNK0	0.000	
15	 C10	4.149	11.179	23.438	C.3	1	UNK0	0.000	
16	 C11	2.751	11.006	24.009	C.2	1	UNK0	0.000	
17	 C12	1.603	11.656	23.566	C.2	1	UNK0	0.000	
18	 C13	0.370	11.397	24.169	C.2	1	UNK0	0.000	
19	 C14	2.759	10.087	25.089	C.2	1	UNK0	0.000	
20	 C15	1.506	9.855	25.690	C.2	1	UNK0	0.000	
21	 C16	0.335	10.489	25.237	C.2	1	UNK0	0.000	
22	  O1	-0.886	10.259	25.858	O.3	1	UNK0	0.000	
23	 C17	-1.058	10.447	27.260	C.3	1	UNK0	0.000	
@<TRIPOS>BOND
1 1 2 1
2 1 10 1
3 1 11 1
4 2 3 1
5 2 6 2
6 3 4 2
7 4 5 1
8 5 7 2
9 6 7 1
10 6 9 1
11 7 8 1
12 9 10 2
13 10 15 1
14 11 12 1
15 12 14 1
16 13 14 1
17 15 16 1
18 16 17 2
19 16 19 1
20 17 18 1
21 18 21 2
22 19 20 2
23 20 21 1
24 21 22 1
25 22 23 1
@<TRIPOS>SUBSTRUCTURE
1	UNK0	1	GROUP	1 ****	UNK
