# created with PyMOL 2.5.0
@<TRIPOS>MOLECULE
MOL
24 27 1                 
SMALL
USER_CHARGES
@<TRIPOS>ATOM
1	  N1	6.305	12.133	23.532	N.pl3	1	UNK0	0.000	
2	  C1	6.703	13.330	24.039	C.2	1	UNK0	0.000	
3	  N2	7.919	13.927	23.985	N.2	1	UNK0	0.000	
4	  C2	8.041	15.137	24.574	C.2	1	UNK0	0.000	
5	  N3	6.996	15.727	25.203	N.2	1	UNK0	0.000	
6	  C3	5.623	13.932	24.667	C.2	1	UNK0	0.000	
7	  C4	5.770	15.153	25.276	C.2	1	UNK0	0.000	
8	  N4	4.747	15.785	25.935	N.pl3	1	UNK0	0.000	
9	  N5	4.595	13.080	24.507	N.2	1	UNK0	0.000	
10	  C5	4.987	11.981	23.828	C.2	1	UNK0	0.000	
11	  C6	7.138	11.188	22.779	C.3	1	UNK0	0.000	
12	  C7	7.856	10.287	23.802	C.3	1	UNK0	0.000	
13	  C8	7.776	7.793	24.437	C.3	1	UNK0	0.000	
14	  C9	8.031	8.831	23.344	C.3	1	UNK0	0.000	
15	 C10	4.159	10.782	23.427	C.3	1	UNK0	0.000	
16	 C11	2.689	11.140	23.584	C.2	1	UNK0	0.000	
17	 C12	1.831	10.369	24.402	C.2	1	UNK0	0.000	
18	 C13	0.497	10.757	24.466	C.2	1	UNK0	0.000	
19	 C14	2.196	12.245	22.871	C.2	1	UNK0	0.000	
20	  O1	-0.550	10.198	25.179	O.3	1	UNK0	0.000	
21	 C15	0.846	12.605	22.961	C.2	1	UNK0	0.000	
22	 C16	0.024	11.831	23.764	C.2	1	UNK0	0.000	
23	  O2	-1.339	11.981	24.022	O.3	1	UNK0	0.000	
24	 C17	-1.749	10.948	24.928	C.3	1	UNK0	0.000	
@<TRIPOS>BOND
1 1 2 1
2 1 10 1
3 1 11 1
4 2 3 1
5 2 6 2
6 3 4 2
7 4 5 1
8 5 7 2
9 6 7 1
10 6 9 1
11 7 8 1
12 9 10 2
13 10 15 1
14 11 12 1
15 12 14 1
16 13 14 1
17 15 16 1
18 16 17 1
19 16 19 2
20 17 18 2
21 18 20 1
22 18 22 1
23 19 21 1
24 20 24 1
25 21 22 2
26 22 23 1
27 23 24 1
@<TRIPOS>SUBSTRUCTURE
1	UNK0	1	GROUP	1 ****	UNK
