# created with PyMOL 2.5.0
@<TRIPOS>MOLECULE
MOL
48 50 1                 
SMALL
USER_CHARGES
@<TRIPOS>ATOM
1	 H01	4.994	16.771	26.298	 H	1	UNK0	0.000	
2	 H12	0.147	8.074	27.220	 H	1	UNK0	0.000	
3	 H04	4.936	9.981	23.574	 H	1	UNK0	0.000	
4	 H03	9.184	15.506	24.656	 H	1	UNK0	0.000	
5	 H02	3.894	15.470	25.900	 H	1	UNK0	0.000	
6	 H11	0.278	12.881	21.320	 H	1	UNK0	0.000	
7	 H09	-0.296	12.479	22.956	 H	1	UNK0	0.000	
8	 H08	4.017	9.458	25.613	 H	1	UNK0	0.000	
9	 H15	7.795	11.632	22.146	 H	1	UNK0	0.000	
10	 H07	-0.259	9.781	26.145	 H	1	UNK0	0.000	
11	 H06	-0.401	11.190	24.046	 H	1	UNK0	0.000	
12	 H05	4.068	10.982	22.305	 H	1	UNK0	0.000	
13	 H23	6.362	7.875	24.968	 H	1	UNK0	0.000	
14	 H14	0.814	8.803	28.700	 H	1	UNK0	0.000	
15	 H18	9.103	10.508	23.419	 H	1	UNK0	0.000	
16	 H17	7.772	10.577	24.750	 H	1	UNK0	0.000	
17	 H16	6.436	10.446	22.398	 H	1	UNK0	0.000	
18	 H19	8.405	8.586	24.827	 H	1	UNK0	0.000	
19	 H22	6.814	6.956	23.511	 H	1	UNK0	0.000	
20	 H21	5.891	8.470	23.358	 H	1	UNK0	0.000	
21	 H20	8.502	8.387	22.939	 H	1	UNK0	0.000	
22	 H10	0.887	13.788	22.725	 H	1	UNK0	0.000	
23	 H13	1.323	7.171	28.205	 H	1	UNK0	0.000	
24	  C1	5.112	12.052	23.815	C.2	1	UNK0	0.000	
25	  N1	4.649	13.146	24.442	N.2	1	UNK0	0.000	
26	  C2	5.723	13.944	24.600	C.2	1	UNK0	0.000	
27	  C3	5.882	15.173	25.222	C.2	1	UNK0	0.000	
28	  N2	4.820	15.873	25.870	N.pl3	1	UNK0	0.000	
29	  C4	6.816	13.320	24.045	C.2	1	UNK0	0.000	
30	  N3	8.032	13.870	23.998	N.2	1	UNK0	0.000	
31	  C5	8.187	15.068	24.614	C.2	1	UNK0	0.000	
32	  N4	7.090	15.791	25.216	N.2	1	UNK0	0.000	
33	  N5	6.402	12.177	23.574	N.pl3	1	UNK0	0.000	
34	  C6	4.305	10.844	23.360	C.3	1	UNK0	0.000	
35	  C7	0.554	10.792	24.388	C.2	1	UNK0	0.000	
36	  C8	1.743	11.056	23.670	C.2	1	UNK0	0.000	
37	  C9	0.630	10.003	25.556	C.2	1	UNK0	0.000	
38	 C10	1.892	9.515	25.932	C.2	1	UNK0	0.000	
39	 C11	3.057	9.819	25.244	C.2	1	UNK0	0.000	
40	 C12	3.002	10.578	24.094	C.2	1	UNK0	0.000	
41	 C13	0.562	12.810	22.370	C.3	1	UNK0	0.000	
42	  O1	1.655	11.847	22.519	O.3	1	UNK0	0.000	
43	  O2	2.096	8.721	27.093	O.3	1	UNK0	0.000	
44	 C14	1.034	8.160	27.849	C.3	1	UNK0	0.000	
45	 C15	7.155	11.120	22.864	C.3	1	UNK0	0.000	
46	 C16	8.089	10.282	23.750	C.3	1	UNK0	0.000	
47	 C17	7.997	8.758	23.831	C.3	1	UNK0	0.000	
48	 C18	6.667	7.954	23.924	C.3	1	UNK0	0.000	
@<TRIPOS>BOND
1 24 25 2
2 24 33 1
3 24 34 1
4 25 26 1
5 26 27 2
6 26 29 1
7 27 28 1
8 27 32 1
9 1 28 1
10 5 28 1
11 29 30 2
12 29 33 1
13 30 31 1
14 4 31 1
15 31 32 2
16 33 45 1
17 3 34 1
18 12 34 1
19 34 40 1
20 11 35 1
21 35 36 2
22 35 37 1
23 36 40 1
24 36 42 1
25 10 37 1
26 37 38 2
27 38 39 1
28 38 43 1
29 8 39 1
30 39 40 2
31 6 41 1
32 7 41 1
33 22 41 1
34 41 42 1
35 43 44 1
36 2 44 1
37 14 44 1
38 23 44 1
39 9 45 1
40 17 45 1
41 45 46 1
42 15 46 1
43 16 46 1
44 46 47 1
45 18 47 1
46 21 47 1
47 47 48 1
48 13 48 1
49 19 48 1
50 20 48 1
@<TRIPOS>SUBSTRUCTURE
1	UNK0	1	GROUP	1 ****	UNK
