# created with PyMOL 2.5.0
@<TRIPOS>MOLECULE
MOL
44 46 1                 
SMALL
USER_CHARGES
@<TRIPOS>ATOM
1	 H10	-0.946	12.707	24.451	 H	1	UNK0	0.000	
2	 H02	8.355	15.853	24.835	 H	1	UNK0	0.000	
3	 H04	2.097	12.397	25.549	 H	1	UNK0	0.000	
4	 H01	4.078	16.858	26.265	 H	1	UNK0	0.000	
5	 H06	2.261	13.616	22.880	 H	1	UNK0	0.000	
6	 H05	2.318	11.296	24.181	 H	1	UNK0	0.000	
7	 H09	-0.507	11.081	23.873	 H	1	UNK0	0.000	
8	 H08	-1.519	12.141	22.864	 H	1	UNK0	0.000	
9	 H03	8.206	14.271	24.105	 H	1	UNK0	0.000	
10	 H07	1.116	13.989	24.283	 H	1	UNK0	0.000	
11	 H13	4.230	10.816	22.209	 H	1	UNK0	0.000	
12	 H12	0.227	13.459	22.221	 H	1	UNK0	0.000	
13	 H11	1.046	11.793	22.512	 H	1	UNK0	0.000	
14	 H14	3.924	10.130	23.829	 H	1	UNK0	0.000	
15	 H18	9.322	8.159	23.013	 H	1	UNK0	0.000	
16	 H17	8.840	9.940	21.369	 H	1	UNK0	0.000	
17	 H16	5.483	8.722	24.845	 H	1	UNK0	0.000	
18	 H19	5.834	6.528	24.705	 H	1	UNK0	0.000	
19	 H15	6.654	11.129	21.456	 H	1	UNK0	0.000	
20	 H21	6.536	6.369	26.333	 H	1	UNK0	0.000	
21	 H20	7.176	5.393	24.988	 H	1	UNK0	0.000	
22	  N1	3.823	12.758	24.384	N.pl3	1	UNK0	0.000	
23	  C1	4.300	13.899	24.839	C.2	1	UNK0	0.000	
24	  N2	3.768	14.936	25.491	N.2	1	UNK0	0.000	
25	  C2	4.547	15.993	25.796	C.2	1	UNK0	0.000	
26	  N3	5.879	16.042	25.555	N.2	1	UNK0	0.000	
27	  C3	5.728	13.868	24.538	C.2	1	UNK0	0.000	
28	  C4	6.491	15.036	24.892	C.2	1	UNK0	0.000	
29	  N4	7.789	15.055	24.586	N.pl3	1	UNK0	0.000	
30	  N5	5.988	12.711	23.944	N.2	1	UNK0	0.000	
31	  C5	4.807	12.070	23.827	C.2	1	UNK0	0.000	
32	  C6	2.421	12.330	24.510	C.3	1	UNK0	0.000	
33	  C7	1.566	13.241	23.631	C.3	1	UNK0	0.000	
34	  C8	-0.692	12.112	23.573	C.3	1	UNK0	0.000	
35	  C9	0.569	12.688	22.911	C.3	1	UNK0	0.000	
36	 C10	4.622	10.703	23.219	C.3	1	UNK0	0.000	
37	 C11	6.882	10.339	22.172	C.2	1	UNK0	0.000	
38	 C12	5.945	9.972	23.152	C.2	1	UNK0	0.000	
39	 C13	6.219	8.997	24.090	C.2	1	UNK0	0.000	
40	 C14	8.102	9.681	22.128	C.2	1	UNK0	0.000	
41	 C15	8.374	8.695	23.056	C.2	1	UNK0	0.000	
42	 C16	7.449	8.382	24.044	C.2	1	UNK0	0.000	
43	  O1	7.694	7.396	24.960	O.3	1	UNK0	0.000	
44	 C17	6.754	6.359	25.265	C.3	1	UNK0	0.000	
@<TRIPOS>BOND
1 22 23 1
2 22 31 1
3 22 32 1
4 23 24 1
5 23 27 2
6 24 25 2
7 4 25 1
8 25 26 1
9 26 28 2
10 27 28 1
11 27 30 1
12 28 29 1
13 2 29 1
14 9 29 1
15 30 31 2
16 31 36 1
17 3 32 1
18 6 32 1
19 32 33 1
20 5 33 1
21 10 33 1
22 33 35 1
23 1 34 1
24 7 34 1
25 8 34 1
26 34 35 1
27 12 35 1
28 13 35 1
29 11 36 1
30 14 36 1
31 36 38 1
32 19 37 1
33 37 38 2
34 37 40 1
35 38 39 1
36 17 39 1
37 39 42 2
38 16 40 1
39 40 41 2
40 15 41 1
41 41 42 1
42 42 43 1
43 43 44 1
44 18 44 1
45 20 44 1
46 21 44 1
@<TRIPOS>SUBSTRUCTURE
1	UNK0	1	GROUP	1 ****	UNK
