# created with PyMOL 2.5.0
@<TRIPOS>MOLECULE
MOL
23 25 1                 
SMALL
USER_CHARGES
@<TRIPOS>ATOM
1	  N1	3.823	12.758	24.384	N.pl3	1	UNK0	0.000	
2	  C1	4.300	13.899	24.839	C.2	1	UNK0	0.000	
3	  N2	3.768	14.936	25.491	N.2	1	UNK0	0.000	
4	  C2	4.547	15.993	25.796	C.2	1	UNK0	0.000	
5	  N3	5.879	16.042	25.555	N.2	1	UNK0	0.000	
6	  C3	5.728	13.868	24.538	C.2	1	UNK0	0.000	
7	  C4	6.491	15.036	24.892	C.2	1	UNK0	0.000	
8	  N4	7.789	15.055	24.586	N.pl3	1	UNK0	0.000	
9	  N5	5.988	12.711	23.944	N.2	1	UNK0	0.000	
10	  C5	4.807	12.070	23.827	C.2	1	UNK0	0.000	
11	  C6	2.421	12.330	24.510	C.3	1	UNK0	0.000	
12	  C7	1.566	13.241	23.631	C.3	1	UNK0	0.000	
13	  C8	-0.692	12.112	23.573	C.3	1	UNK0	0.000	
14	  C9	0.569	12.688	22.911	C.3	1	UNK0	0.000	
15	 C10	4.622	10.703	23.219	C.3	1	UNK0	0.000	
16	 C11	6.882	10.339	22.172	C.2	1	UNK0	0.000	
17	 C12	5.945	9.972	23.152	C.2	1	UNK0	0.000	
18	 C13	6.219	8.997	24.090	C.2	1	UNK0	0.000	
19	 C14	8.102	9.681	22.128	C.2	1	UNK0	0.000	
20	 C15	8.374	8.695	23.056	C.2	1	UNK0	0.000	
21	 C16	7.449	8.382	24.044	C.2	1	UNK0	0.000	
22	  O1	7.694	7.396	24.960	O.3	1	UNK0	0.000	
23	 C17	6.754	6.359	25.265	C.3	1	UNK0	0.000	
@<TRIPOS>BOND
1 1 2 1
2 1 10 1
3 1 11 1
4 2 3 1
5 2 6 2
6 3 4 2
7 4 5 1
8 5 7 2
9 6 7 1
10 6 9 1
11 7 8 1
12 9 10 2
13 10 15 1
14 11 12 1
15 12 14 1
16 13 14 1
17 15 17 1
18 16 17 2
19 16 19 1
20 17 18 1
21 18 21 2
22 19 20 2
23 20 21 1
24 21 22 1
25 22 23 1
@<TRIPOS>SUBSTRUCTURE
1	UNK0	1	GROUP	1 ****	UNK
