# created with PyMOL 2.5.0
@<TRIPOS>MOLECULE
MOL
30 32 1                 
SMALL
USER_CHARGES
@<TRIPOS>ATOM
1	  C1	4.825	12.079	23.821	C.2	1	UNK0	0.000	
2	  N1	4.377	13.117	24.467	N.2	1	UNK0	0.000	
3	  C2	5.547	13.949	24.684	C.2	1	UNK0	0.000	
4	  C3	5.682	15.153	25.280	C.2	1	UNK0	0.000	
5	  N2	4.631	15.901	25.932	N.pl3	1	UNK0	0.000	
6	  C4	6.646	13.403	24.122	C.2	1	UNK0	0.000	
7	  N3	7.819	13.960	24.098	N.2	1	UNK0	0.000	
8	  C5	7.925	15.130	24.692	C.2	1	UNK0	0.000	
9	  N4	6.903	15.668	25.266	N.2	1	UNK0	0.000	
10	  N5	6.249	12.184	23.506	N.pl3	1	UNK0	0.000	
11	  F1	9.102	15.795	24.732	 F	1	UNK0	0.000	
12	  C6	4.014	10.896	23.376	C.3	1	UNK0	0.000	
13	 Cl1	1.474	12.771	22.613	Cl	1	UNK0	0.000	
14	  C7	1.541	11.477	23.818	C.2	1	UNK0	0.000	
15	  C8	0.444	11.177	24.599	C.2	1	UNK0	0.000	
16	  C9	0.456	10.212	25.552	C.2	1	UNK0	0.000	
17	 C10	1.536	9.484	25.828	C.2	1	UNK0	0.000	
18	 C11	2.689	9.725	25.097	C.2	1	UNK0	0.000	
19	 C12	2.705	10.710	24.109	C.2	1	UNK0	0.000	
20	  O1	-0.817	11.763	24.574	O.3	1	UNK0	0.000	
21	 C13	-1.678	11.788	23.483	C.3	1	UNK0	0.000	
22	  O2	-0.737	9.992	26.241	O.3	1	UNK0	0.000	
23	 C14	-0.886	10.536	27.546	C.3	1	UNK0	0.000	
24	  O3	1.367	8.472	26.795	O.3	1	UNK0	0.000	
25	 C15	2.497	8.240	27.658	C.3	1	UNK0	0.000	
26	 C16	7.122	11.201	22.840	C.3	1	UNK0	0.000	
27	 C17	7.895	10.393	23.866	C.3	1	UNK0	0.000	
28	 C18	7.930	8.897	23.712	C.3	1	UNK0	0.000	
29	 C19	6.662	8.063	23.953	C.1	1	UNK0	0.000	
30	 C20	5.676	7.429	24.078	C.1	1	UNK0	0.000	
@<TRIPOS>BOND
1 1 2 2
2 1 10 1
3 1 12 1
4 2 3 1
5 3 4 1
6 3 6 2
7 4 5 1
8 4 9 2
9 6 7 1
10 6 10 1
11 7 8 2
12 8 9 1
13 8 11 1
14 10 26 1
15 12 19 1
16 13 14 1
17 14 15 1
18 14 19 2
19 15 16 2
20 15 20 1
21 16 17 1
22 16 22 1
23 17 18 2
24 17 24 1
25 18 19 1
26 20 21 1
27 22 23 1
28 24 25 1
29 26 27 1
30 27 28 1
31 28 29 1
32 29 30 3
@<TRIPOS>SUBSTRUCTURE
1	UNK0	1	GROUP	1 ****	UNK
