# created with PyMOL 2.5.0
@<TRIPOS>MOLECULE
MOL
29 31 1                 
SMALL
USER_CHARGES
@<TRIPOS>ATOM
1	  C1	4.513	12.174	23.811	C.2	1	UNK0	0.000	
2	  N1	4.077	13.241	24.492	N.2	1	UNK0	0.000	
3	  C2	5.140	13.994	24.763	C.2	1	UNK0	0.000	
4	  C3	5.357	15.173	25.425	C.2	1	UNK0	0.000	
5	  N2	4.293	15.922	26.044	N.pl3	1	UNK0	0.000	
6	  C4	6.217	13.384	24.200	C.2	1	UNK0	0.000	
7	  N3	7.474	13.827	24.255	N.2	1	UNK0	0.000	
8	  C5	7.626	14.998	24.899	C.2	1	UNK0	0.000	
9	  N4	6.596	15.656	25.460	N.2	1	UNK0	0.000	
10	  N5	5.861	12.258	23.619	N.pl3	1	UNK0	0.000	
11	  C6	3.610	11.070	23.278	C.3	1	UNK0	0.000	
12	 Cl1	0.950	12.179	24.651	Cl	1	UNK0	0.000	
13	  C7	1.763	10.661	25.060	C.2	1	UNK0	0.000	
14	  C8	1.266	9.844	26.091	C.2	1	UNK0	0.000	
15	  C9	1.895	8.680	26.463	C.2	1	UNK0	0.000	
16	 C10	3.053	8.273	25.841	C.2	1	UNK0	0.000	
17	 C11	3.585	9.060	24.809	C.2	1	UNK0	0.000	
18	 C12	2.949	10.253	24.400	C.2	1	UNK0	0.000	
19	  O1	0.131	10.024	26.932	O.3	1	UNK0	0.000	
20	 C13	-1.103	10.291	27.319	C.3	1	UNK0	0.000	
21	  O2	1.268	7.933	27.518	O.3	1	UNK0	0.000	
22	 C14	1.838	7.907	28.858	C.3	1	UNK0	0.000	
23	  O3	3.612	7.089	26.285	O.3	1	UNK0	0.000	
24	 C15	3.646	5.893	25.476	C.3	1	UNK0	0.000	
25	 C16	6.737	11.307	22.934	C.3	1	UNK0	0.000	
26	 C17	7.563	10.506	23.946	C.3	1	UNK0	0.000	
27	 C18	8.074	9.205	23.342	C.3	1	UNK0	0.000	
28	 C19	7.569	7.935	24.042	C.1	1	UNK0	0.000	
29	 C20	7.234	6.977	24.652	C.1	1	UNK0	0.000	
@<TRIPOS>BOND
1 1 2 2
2 1 10 1
3 1 11 1
4 2 3 1
5 3 4 2
6 3 6 1
7 4 5 1
8 4 9 1
9 6 7 2
10 6 10 1
11 7 8 1
12 8 9 2
13 10 25 1
14 11 18 1
15 12 13 1
16 13 14 1
17 13 18 2
18 14 15 2
19 14 19 1
20 15 16 1
21 15 21 1
22 16 17 2
23 16 23 1
24 17 18 1
25 19 20 1
26 21 22 1
27 23 24 1
28 25 26 1
29 26 27 1
30 27 28 1
31 28 29 3
@<TRIPOS>SUBSTRUCTURE
1	UNK0	1	GROUP	1 ****	UNK
