# created with PyMOL 2.5.0
@<TRIPOS>MOLECULE
MOL
23 25 1                 
SMALL
USER_CHARGES
@<TRIPOS>ATOM
1	  N1	6.216	12.244	23.629	N.pl3	1	UNK0	0.000	
2	  C1	6.672	13.394	24.100	C.2	1	UNK0	0.000	
3	  N2	7.987	13.826	23.899	N.2	1	UNK0	0.000	
4	  C2	8.325	15.123	24.472	C.2	1	UNK0	0.000	
5	  N3	7.247	15.811	25.108	N.2	1	UNK0	0.000	
6	  C3	5.640	14.177	24.819	C.2	1	UNK0	0.000	
7	  C4	5.962	15.456	25.332	C.2	1	UNK0	0.000	
8	  N4	5.005	16.169	25.968	N.pl3	1	UNK0	0.000	
9	  N5	4.507	13.431	24.683	N.2	1	UNK0	0.000	
10	  C5	4.958	12.341	24.068	C.2	1	UNK0	0.000	
11	  C6	6.930	11.217	22.897	C.3	1	UNK0	0.000	
12	  C7	7.763	10.348	23.823	C.3	1	UNK0	0.000	
13	  C8	7.760	7.882	24.348	C.3	1	UNK0	0.000	
14	  C9	8.012	9.095	23.405	C.3	1	UNK0	0.000	
15	 C10	4.146	11.141	23.583	C.3	1	UNK0	0.000	
16	 C11	2.635	11.253	23.698	C.2	1	UNK0	0.000	
17	 C12	1.817	10.464	24.501	C.2	1	UNK0	0.000	
18	 C13	0.438	10.679	24.529	C.2	1	UNK0	0.000	
19	 C14	2.141	12.280	22.854	C.2	1	UNK0	0.000	
20	 C15	0.744	12.467	22.889	C.2	1	UNK0	0.000	
21	 C16	-0.089	11.689	23.713	C.2	1	UNK0	0.000	
22	  O1	-1.465	11.879	23.716	O.3	1	UNK0	0.000	
23	 C17	-2.116	12.639	22.701	C.3	1	UNK0	0.000	
@<TRIPOS>BOND
1 1 2 1
2 1 10 1
3 1 11 1
4 2 3 1
5 2 6 2
6 3 4 2
7 4 5 1
8 5 7 2
9 6 7 1
10 6 9 1
11 7 8 1
12 9 10 2
13 10 15 1
14 11 12 1
15 12 14 1
16 13 14 1
17 15 16 1
18 16 17 2
19 16 19 1
20 17 18 1
21 18 21 2
22 19 20 2
23 20 21 1
24 21 22 1
25 22 23 1
@<TRIPOS>SUBSTRUCTURE
1	UNK0	1	GROUP	1 ****	UNK
