# created with PyMOL 2.5.0
@<TRIPOS>MOLECULE
MOL
92 93 1                 
SMALL
USER_CHARGES
@<TRIPOS>ATOM
1	 H06	0.836	8.327	23.699	 H	1	UNK0	0.000	
2	 H08	1.779	4.851	25.691	 H	1	UNK0	0.000	
3	 H10	1.585	9.644	29.551	 H	1	UNK0	0.000	
4	 H07	0.108	7.216	22.513	 H	1	UNK0	0.000	
5	 H12	-3.576	10.605	25.190	 H	1	UNK0	0.000	
6	 H11	-1.181	9.428	29.252	 H	1	UNK0	0.000	
7	 H15	0.326	11.032	26.320	 H	1	UNK0	0.000	
8	 H14	-3.090	8.902	25.359	 H	1	UNK0	0.000	
9	 H09	0.038	5.381	25.606	 H	1	UNK0	0.000	
10	 H16	-0.378	10.402	23.370	 H	1	UNK0	0.000	
11	 H19	3.645	12.691	23.491	 H	1	UNK0	0.000	
12	 H18	1.576	12.375	25.698	 H	1	UNK0	0.000	
13	 H29	5.601	6.558	21.643	 H	1	UNK0	0.000	
14	 H17	1.347	11.808	22.741	 H	1	UNK0	0.000	
15	 H24	5.015	8.340	24.524	 H	1	UNK0	0.000	
16	 H23	4.591	10.908	22.843	 H	1	UNK0	0.000	
17	 H38	8.643	6.739	24.882	 H	1	UNK0	0.000	
18	 H22	4.392	11.084	26.903	 H	1	UNK0	0.000	
19	 H13	-2.427	9.890	24.035	 H	1	UNK0	0.000	
20	 H21	4.422	9.428	26.250	 H	1	UNK0	0.000	
21	 H37	7.122	5.999	27.739	 H	1	UNK0	0.000	
22	 H26	6.915	9.890	22.642	 H	1	UNK0	0.000	
23	 H32	3.497	5.231	20.224	 H	1	UNK0	0.000	
24	 H31	2.679	4.825	21.752	 H	1	UNK0	0.000	
25	 H30	4.343	5.456	21.774	 H	1	UNK0	0.000	
26	 H33	3.631	5.148	27.024	 H	1	UNK0	0.000	
27	 H36	5.832	4.763	26.991	 H	1	UNK0	0.000	
28	 H35	5.175	7.537	26.858	 H	1	UNK0	0.000	
29	 H34	5.207	6.696	28.522	 H	1	UNK0	0.000	
30	 H20	2.872	10.279	26.447	 H	1	UNK0	0.000	
31	 H41	5.340	6.066	24.612	 H	1	UNK0	0.000	
32	 H40	7.784	7.506	26.239	 H	1	UNK0	0.000	
33	 H39	7.026	7.439	24.630	 H	1	UNK0	0.000	
34	 H42	6.774	5.706	23.622	 H	1	UNK0	0.000	
35	 H45	1.284	15.303	22.820	 H	1	UNK0	0.000	
36	 H44	-0.069	15.006	23.936	 H	1	UNK0	0.000	
37	 H43	5.930	4.392	24.477	 H	1	UNK0	0.000	
38	 H25	7.309	8.360	23.461	 H	1	UNK0	0.000	
39	 H28	4.837	8.754	21.594	 H	1	UNK0	0.000	
40	 H48	3.487	15.560	25.514	 H	1	UNK0	0.000	
41	 H47	4.810	16.343	24.679	 H	1	UNK0	0.000	
42	 H27	7.075	9.845	24.414	 H	1	UNK0	0.000	
43	 H46	0.495	13.707	22.858	 H	1	UNK0	0.000	
44	 H01	2.653	8.704	22.646	 H	1	UNK0	0.000	
45	 H02	2.937	7.460	24.602	 H	1	UNK0	0.000	
46	 H03	3.454	5.920	23.642	 H	1	UNK0	0.000	
47	 H04	1.224	5.345	23.386	 H	1	UNK0	0.000	
48	 H05	-0.528	7.287	24.173	 H	1	UNK0	0.000	
49	  C1	3.177	7.753	22.543	C.3	1	UNK0	0.000	
50	  C2	2.812	6.794	23.748	C.3	1	UNK0	0.000	
51	  C3	1.365	6.241	23.991	C.3	1	UNK0	0.000	
52	  C4	0.372	7.350	23.562	C.3	1	UNK0	0.000	
53	  C5	1.085	5.677	25.538	C.3	1	UNK0	0.000	
54	  C6	1.374	6.708	26.680	C.2	1	UNK0	0.000	
55	  C7	2.548	6.916	27.438	C.2	1	UNK0	0.000	
56	  C8	2.681	7.988	28.499	C.2	1	UNK0	0.000	
57	  O1	3.757	8.101	29.092	O.2	1	UNK0	0.000	
58	  C9	1.503	8.867	28.792	C.2	1	UNK0	0.000	
59	 C10	0.313	8.699	28.107	C.2	1	UNK0	0.000	
60	  N1	-0.900	9.432	28.281	N.pl3	1	UNK0	0.000	
61	 C11	-1.850	10.181	27.480	C.2	1	UNK0	0.000	
62	  O2	-2.737	10.616	28.039	O.2	1	UNK0	0.000	
63	 C12	-1.605	10.316	25.961	C.2	1	UNK0	0.000	
64	 C13	-2.754	9.899	25.074	C.3	1	UNK0	0.000	
65	 C14	-0.380	10.776	25.530	C.2	1	UNK0	0.000	
66	 C15	0.111	10.971	24.160	C.2	1	UNK0	0.000	
67	 C16	1.100	11.781	23.802	C.2	1	UNK0	0.000	
68	 C17	1.915	12.666	24.704	C.3	1	UNK0	0.000	
69	 C18	3.470	12.465	24.543	C.3	1	UNK0	0.000	
70	 C19	4.052	10.956	24.784	C.2	1	UNK0	0.000	
71	 C20	3.926	10.397	26.197	C.3	1	UNK0	0.000	
72	 C21	4.598	10.339	23.773	C.2	1	UNK0	0.000	
73	 C22	5.240	8.971	23.664	C.3	1	UNK0	0.000	
74	 C23	6.745	9.290	23.536	C.3	1	UNK0	0.000	
75	 C24	4.706	8.143	22.486	C.3	1	UNK0	0.000	
76	  O3	5.438	6.869	22.536	O.3	1	UNK0	0.000	
77	 C25	0.204	7.597	27.009	C.2	1	UNK0	0.000	
78	  O4	-0.866	7.452	26.390	O.2	1	UNK0	0.000	
79	 C26	3.377	5.510	21.271	C.3	1	UNK0	0.000	
80	  O5	2.805	7.016	21.366	O.3	1	UNK0	0.000	
81	  N2	3.746	6.120	27.273	N.pl3	1	UNK0	0.000	
82	 C27	5.105	6.619	27.440	C.3	1	UNK0	0.000	
83	 C28	6.341	5.726	27.029	C.3	1	UNK0	0.000	
84	  N3	7.068	5.644	25.669	N.3	1	UNK0	0.000	
85	 C29	7.666	6.909	25.335	C.3	1	UNK0	0.000	
86	 C30	6.228	5.440	24.527	C.3	1	UNK0	0.000	
87	  O6	1.695	14.144	24.431	O.3	1	UNK0	0.000	
88	 C31	0.805	14.562	23.460	C.3	1	UNK0	0.000	
89	  O7	4.149	13.315	25.430	O.3	1	UNK0	0.000	
90	 C32	4.965	14.306	24.848	C.2	1	UNK0	0.000	
91	  N4	4.371	15.503	25.029	N.pl3	1	UNK0	0.000	
92	  O8	6.033	14.135	24.278	O.co2	1	UNK0	0.000	
@<TRIPOS>BOND
1 44 49 1
2 49 50 1
3 49 75 1
4 49 80 1
5 45 50 1
6 46 50 1
7 50 51 1
8 47 51 1
9 51 52 1
10 51 53 1
11 1 52 1
12 4 52 1
13 48 52 1
14 2 53 1
15 9 53 1
16 53 54 1
17 54 55 2
18 54 77 1
19 55 56 1
20 55 81 1
21 56 57 2
22 56 58 1
23 3 58 1
24 58 59 2
25 59 60 1
26 59 77 1
27 6 60 1
28 60 61 1
29 61 62 2
30 61 63 1
31 63 64 1
32 63 65 2
33 5 64 1
34 8 64 1
35 19 64 1
36 7 65 1
37 65 66 1
38 10 66 1
39 66 67 2
40 14 67 1
41 67 68 1
42 12 68 1
43 68 69 1
44 68 87 1
45 11 69 1
46 69 70 1
47 69 89 1
48 70 71 1
49 70 72 2
50 18 71 1
51 20 71 1
52 30 71 1
53 16 72 1
54 72 73 1
55 15 73 1
56 73 74 1
57 73 75 1
58 22 74 1
59 38 74 1
60 42 74 1
61 39 75 1
62 75 76 1
63 13 76 1
64 77 78 2
65 23 79 1
66 24 79 1
67 25 79 1
68 79 80 1
69 26 81 1
70 81 82 1
71 28 82 1
72 29 82 1
73 82 83 1
74 21 83 1
75 27 83 1
76 83 84 1
77 84 85 1
78 84 86 1
79 17 85 1
80 32 85 1
81 33 85 1
82 31 86 1
83 34 86 1
84 37 86 1
85 87 88 1
86 35 88 1
87 36 88 1
88 43 88 1
89 89 90 1
90 90 91 1
91 90 92 2
92 40 91 1
93 41 91 1
@<TRIPOS>SUBSTRUCTURE
1	UNK0	1	GROUP	1 ****	UNK
