# created with PyMOL 2.5.0
@<TRIPOS>MOLECULE
MOL
28 30 1                 
SMALL
USER_CHARGES
@<TRIPOS>ATOM
1	  C1	2.349	10.464	24.503	C.2	1	UNK0	0.000	
2	  N1	1.249	10.939	25.079	N.2	1	UNK0	0.000	
3	  C2	0.932	10.113	26.053	C.2	1	UNK0	0.000	
4	  C3	-0.106	10.116	26.976	C.2	1	UNK0	0.000	
5	  N2	-1.156	11.141	26.974	N.pl3	1	UNK0	0.000	
6	  C4	1.902	9.124	26.105	C.2	1	UNK0	0.000	
7	  N3	1.849	8.157	27.043	N.2	1	UNK0	0.000	
8	  C5	0.827	8.206	27.922	C.2	1	UNK0	0.000	
9	  N4	-0.126	9.164	27.897	N.2	1	UNK0	0.000	
10	  N5	2.766	9.365	25.122	N.pl3	1	UNK0	0.000	
11	  C6	3.055	11.107	23.341	C.3	1	UNK0	0.000	
12	  C7	5.076	14.132	24.634	C.2	1	UNK0	0.000	
13	  C8	3.956	13.354	24.314	C.2	1	UNK0	0.000	
14	  C9	6.352	13.637	24.408	C.2	1	UNK0	0.000	
15	 C10	6.550	12.386	23.872	C.2	1	UNK0	0.000	
16	 C11	5.447	11.616	23.551	C.2	1	UNK0	0.000	
17	 C12	4.160	12.071	23.752	C.2	1	UNK0	0.000	
18	 Cl1	2.355	14.005	24.580	Cl	1	UNK0	0.000	
19	 C13	4.585	15.911	26.396	C.3	1	UNK0	0.000	
20	  O1	5.036	15.474	25.136	O.3	1	UNK0	0.000	
21	  O2	7.452	14.454	24.763	O.3	1	UNK0	0.000	
22	 C14	8.042	14.306	26.066	C.3	1	UNK0	0.000	
23	  O3	7.876	11.882	23.692	O.3	1	UNK0	0.000	
24	 C15	8.144	10.487	23.460	C.3	1	UNK0	0.000	
25	 C16	3.953	8.578	24.765	C.3	1	UNK0	0.000	
26	 C17	3.545	7.355	23.977	C.2	1	UNK0	0.000	
27	 C18	3.843	7.236	22.484	C.2	1	UNK0	0.000	
28	 C19	4.711	8.277	21.798	C.3	1	UNK0	0.000	
@<TRIPOS>BOND
1 1 2 2
2 1 10 1
3 1 11 1
4 2 3 1
5 3 4 2
6 3 6 1
7 4 5 1
8 4 9 1
9 6 7 2
10 6 10 1
11 7 8 1
12 8 9 2
13 10 25 1
14 11 17 1
15 12 13 2
16 12 14 1
17 12 20 1
18 13 17 1
19 13 18 1
20 14 15 2
21 14 21 1
22 15 16 1
23 15 23 1
24 16 17 2
25 19 20 1
26 21 22 1
27 23 24 1
28 25 26 1
29 26 27 2
30 27 28 1
@<TRIPOS>SUBSTRUCTURE
1	UNK0	1	GROUP	1 ****	UNK
