# created with PyMOL 2.5.0
@<TRIPOS>MOLECULE
MOL
25 27 1                 
SMALL
USER_CHARGES
@<TRIPOS>ATOM
1	  C1	6.784	11.189	23.624	C.2	1	UNK0	0.000	
2	  N1	7.745	10.278	23.844	N.2	1	UNK0	0.000	
3	  C2	7.095	9.107	23.992	C.2	1	UNK0	0.000	
4	  C3	7.543	7.829	24.291	C.2	1	UNK0	0.000	
5	  N2	8.915	7.506	24.517	N.pl3	1	UNK0	0.000	
6	  C4	5.747	9.333	23.839	C.2	1	UNK0	0.000	
7	  N3	4.829	8.366	23.886	N.2	1	UNK0	0.000	
8	  C5	5.268	7.118	24.185	C.2	1	UNK0	0.000	
9	  N4	6.666	6.795	24.356	N.2	1	UNK0	0.000	
10	  N5	5.601	10.609	23.612	N.pl3	1	UNK0	0.000	
11	  C6	6.972	12.676	23.354	C.3	1	UNK0	0.000	
12	  C7	7.033	15.257	26.263	C.2	1	UNK0	0.000	
13	  C8	6.581	14.473	25.176	C.2	1	UNK0	0.000	
14	  C9	8.353	15.073	26.727	C.2	1	UNK0	0.000	
15	 C10	9.142	14.106	26.083	C.2	1	UNK0	0.000	
16	 C11	8.702	13.377	24.989	C.2	1	UNK0	0.000	
17	 C12	7.411	13.533	24.528	C.2	1	UNK0	0.000	
18	 C13	4.260	15.237	25.614	C.3	1	UNK0	0.000	
19	  O1	5.273	14.672	24.720	O.3	1	UNK0	0.000	
20	  O2	10.488	13.839	26.453	O.3	1	UNK0	0.000	
21	 C14	11.416	14.854	26.801	C.3	1	UNK0	0.000	
22	 C15	4.367	11.387	23.361	C.3	1	UNK0	0.000	
23	 C16	3.371	11.419	24.529	C.3	1	UNK0	0.000	
24	 C17	1.906	11.819	24.349	C.3	1	UNK0	0.000	
25	 C18	1.420	13.235	23.921	C.3	1	UNK0	0.000	
@<TRIPOS>BOND
1 1 2 2
2 1 10 1
3 1 11 1
4 2 3 1
5 3 4 2
6 3 6 1
7 4 5 1
8 4 9 1
9 6 7 2
10 6 10 1
11 7 8 1
12 8 9 2
13 10 22 1
14 11 17 1
15 12 13 2
16 12 14 1
17 13 17 1
18 13 19 1
19 14 15 2
20 15 16 1
21 15 20 1
22 16 17 2
23 18 19 1
24 20 21 1
25 22 23 1
26 23 24 1
27 24 25 1
@<TRIPOS>SUBSTRUCTURE
1	UNK0	1	GROUP	1 ****	UNK
