# created with PyMOL 2.5.0
@<TRIPOS>MOLECULE
MOL
23 25 1                 
SMALL
USER_CHARGES
@<TRIPOS>ATOM
1	  N1	6.318	12.109	23.508	N.pl3	1	UNK0	0.000	
2	  C1	6.782	13.232	24.016	C.2	1	UNK0	0.000	
3	  N2	7.986	13.812	24.048	N.2	1	UNK0	0.000	
4	  C2	8.135	14.985	24.694	C.2	1	UNK0	0.000	
5	  N3	7.112	15.673	25.254	N.2	1	UNK0	0.000	
6	  C3	5.623	13.903	24.596	C.2	1	UNK0	0.000	
7	  C4	5.865	15.150	25.272	C.2	1	UNK0	0.000	
8	  N4	4.832	15.762	25.852	N.pl3	1	UNK0	0.000	
9	  N5	4.564	13.136	24.375	N.2	1	UNK0	0.000	
10	  C5	5.018	12.033	23.745	C.2	1	UNK0	0.000	
11	  C6	7.131	11.125	22.775	C.3	1	UNK0	0.000	
12	  C7	7.802	10.210	23.797	C.3	1	UNK0	0.000	
13	  C8	8.291	7.734	23.864	C.3	1	UNK0	0.000	
14	  C9	7.350	8.946	23.922	C.3	1	UNK0	0.000	
15	 C10	4.157	10.885	23.284	C.3	1	UNK0	0.000	
16	 C11	2.381	10.428	25.008	C.2	1	UNK0	0.000	
17	 C12	2.744	11.045	23.799	C.2	1	UNK0	0.000	
18	 C13	1.860	11.838	23.095	C.2	1	UNK0	0.000	
19	 C14	1.090	10.596	25.488	C.2	1	UNK0	0.000	
20	 C15	0.200	11.376	24.778	C.2	1	UNK0	0.000	
21	 C16	0.596	12.013	23.609	C.2	1	UNK0	0.000	
22	  O1	-0.278	12.775	22.883	O.3	1	UNK0	0.000	
23	 C17	-1.666	12.454	22.741	C.3	1	UNK0	0.000	
@<TRIPOS>BOND
1 1 2 1
2 1 10 1
3 1 11 1
4 2 3 1
5 2 6 2
6 3 4 2
7 4 5 1
8 5 7 2
9 6 7 1
10 6 9 1
11 7 8 1
12 9 10 2
13 10 15 1
14 11 12 1
15 12 14 1
16 13 14 1
17 15 17 1
18 16 17 2
19 16 19 1
20 17 18 1
21 18 21 2
22 19 20 2
23 20 21 1
24 21 22 1
25 22 23 1
@<TRIPOS>SUBSTRUCTURE
1	UNK0	1	GROUP	1 ****	UNK
