# created with PyMOL 2.5.0
@<TRIPOS>MOLECULE
MOL
51 53 1                 
SMALL
USER_CHARGES
@<TRIPOS>ATOM
1	 H19	9.071	8.651	23.409	 H	1	UNK0	0.000	
2	 H03	4.897	10.267	22.825	 H	1	UNK0	0.000	
3	 H20	7.472	8.694	22.451	 H	1	UNK0	0.000	
4	 H17	7.034	10.176	24.599	 H	1	UNK0	0.000	
5	 H04	3.533	11.397	22.403	 H	1	UNK0	0.000	
6	 H18	8.797	10.559	24.203	 H	1	UNK0	0.000	
7	 H02	3.864	15.582	25.887	 H	1	UNK0	0.000	
8	 H01	5.023	16.796	26.381	 H	1	UNK0	0.000	
9	 H08	-1.329	9.650	25.363	 H	1	UNK0	0.000	
10	 H21	6.647	5.983	25.598	 H	1	UNK0	0.000	
11	 H06	-1.640	10.976	26.508	 H	1	UNK0	0.000	
12	 H05	4.719	8.670	24.267	 H	1	UNK0	0.000	
13	 H16	6.774	10.712	22.052	 H	1	UNK0	0.000	
14	 H07	-0.851	11.314	24.949	 H	1	UNK0	0.000	
15	 H11	1.919	7.089	28.575	 H	1	UNK0	0.000	
16	 H10	0.862	8.444	29.040	 H	1	UNK0	0.000	
17	 H09	2.520	8.761	28.477	 H	1	UNK0	0.000	
18	 H12	2.400	6.271	24.463	 H	1	UNK0	0.000	
19	 H15	8.189	11.746	22.406	 H	1	UNK0	0.000	
20	 H14	2.914	5.099	25.700	 H	1	UNK0	0.000	
21	 H13	4.118	5.827	24.609	 H	1	UNK0	0.000	
22	  C1	5.009	12.156	23.710	C.2	1	UNK0	0.000	
23	  N1	4.558	13.189	24.361	N.2	1	UNK0	0.000	
24	  C2	5.739	13.976	24.668	C.2	1	UNK0	0.000	
25	  C3	5.877	15.157	25.305	C.2	1	UNK0	0.000	
26	  N2	4.815	15.922	25.919	N.pl3	1	UNK0	0.000	
27	  C4	6.851	13.409	24.152	C.2	1	UNK0	0.000	
28	  N3	8.040	13.927	24.211	N.2	1	UNK0	0.000	
29	  C5	8.148	15.076	24.845	C.2	1	UNK0	0.000	
30	  N4	7.113	15.632	25.376	N.2	1	UNK0	0.000	
31	  N5	6.451	12.222	23.479	N.pl3	1	UNK0	0.000	
32	  F1	9.342	15.700	24.970	 F	1	UNK0	0.000	
33	  C6	4.188	11.013	23.185	C.3	1	UNK0	0.000	
34	 Cl1	1.470	12.448	24.233	Cl	1	UNK0	0.000	
35	  C7	2.115	10.872	24.712	C.2	1	UNK0	0.000	
36	  C8	1.475	10.101	25.661	C.2	1	UNK0	0.000	
37	  C9	1.945	8.900	26.077	C.2	1	UNK0	0.000	
38	 C10	3.077	8.369	25.618	C.2	1	UNK0	0.000	
39	 C11	3.792	9.080	24.667	C.2	1	UNK0	0.000	
40	 C12	3.330	10.318	24.219	C.2	1	UNK0	0.000	
41	  O1	0.295	10.379	26.342	O.3	1	UNK0	0.000	
42	 C13	-0.948	10.591	25.759	C.3	1	UNK0	0.000	
43	  O2	1.175	8.213	27.017	O.3	1	UNK0	0.000	
44	 C14	1.646	8.121	28.355	C.3	1	UNK0	0.000	
45	  O3	3.392	7.080	26.097	O.3	1	UNK0	0.000	
46	 C15	3.194	6.004	25.161	C.3	1	UNK0	0.000	
47	 C16	7.330	11.229	22.834	C.3	1	UNK0	0.000	
48	 C17	7.825	10.216	23.850	C.3	1	UNK0	0.000	
49	 C18	7.990	8.788	23.406	C.3	1	UNK0	0.000	
50	 C19	7.491	7.637	24.294	C.1	1	UNK0	0.000	
51	 C20	7.052	6.778	24.972	C.1	1	UNK0	0.000	
@<TRIPOS>BOND
1 22 23 2
2 22 31 1
3 22 33 1
4 23 24 1
5 24 25 1
6 24 27 2
7 25 26 1
8 25 30 2
9 7 26 1
10 8 26 1
11 27 28 1
12 27 31 1
13 28 29 2
14 29 30 1
15 29 32 1
16 31 47 1
17 2 33 1
18 5 33 1
19 33 40 1
20 34 35 1
21 35 36 1
22 35 40 2
23 36 37 2
24 36 41 1
25 37 38 1
26 37 43 1
27 38 39 2
28 38 45 1
29 12 39 1
30 39 40 1
31 41 42 1
32 9 42 1
33 11 42 1
34 14 42 1
35 43 44 1
36 15 44 1
37 16 44 1
38 17 44 1
39 45 46 1
40 18 46 1
41 20 46 1
42 21 46 1
43 13 47 1
44 19 47 1
45 47 48 1
46 4 48 1
47 6 48 1
48 48 49 1
49 1 49 1
50 3 49 1
51 49 50 1
52 50 51 3
53 10 51 1
@<TRIPOS>SUBSTRUCTURE
1	UNK0	1	GROUP	1 ****	UNK
