# created with PyMOL 2.5.0
@<TRIPOS>MOLECULE
MOL
24 27 1                 
SMALL
USER_CHARGES
@<TRIPOS>ATOM
1	  N1	7.225	13.828	24.589	N.pl3	1	UNK0	0.000	
2	  C1	6.122	14.535	24.955	C.2	1	UNK0	0.000	
3	  N2	6.035	15.748	25.553	N.2	1	UNK0	0.000	
4	  C2	4.797	16.229	25.802	C.2	1	UNK0	0.000	
5	  N3	3.686	15.524	25.478	N.2	1	UNK0	0.000	
6	  C3	4.991	13.813	24.605	C.2	1	UNK0	0.000	
7	  C4	3.741	14.308	24.881	C.2	1	UNK0	0.000	
8	  N4	2.588	13.628	24.584	N.pl3	1	UNK0	0.000	
9	  N5	5.449	12.690	24.022	N.2	1	UNK0	0.000	
10	  C5	6.798	12.676	24.008	C.2	1	UNK0	0.000	
11	  C6	8.621	14.244	24.766	C.3	1	UNK0	0.000	
12	  C7	8.842	14.500	26.269	C.3	1	UNK0	0.000	
13	  C8	11.391	14.742	26.534	C.3	1	UNK0	0.000	
14	  C9	10.026	15.428	26.581	C.3	1	UNK0	0.000	
15	 C10	7.719	11.615	23.450	C.3	1	UNK0	0.000	
16	 C11	6.869	10.453	22.957	C.2	1	UNK0	0.000	
17	 C12	6.465	10.365	21.605	C.2	1	UNK0	0.000	
18	 C13	5.670	9.280	21.250	C.2	1	UNK0	0.000	
19	 C14	6.473	9.480	23.888	C.2	1	UNK0	0.000	
20	  O1	5.139	8.943	20.016	O.3	1	UNK0	0.000	
21	 C15	5.672	8.402	23.492	C.2	1	UNK0	0.000	
22	 C16	5.284	8.340	22.164	C.2	1	UNK0	0.000	
23	  O2	4.501	7.378	21.526	O.3	1	UNK0	0.000	
24	 C17	4.382	7.729	20.141	C.3	1	UNK0	0.000	
@<TRIPOS>BOND
1 1 2 1
2 1 10 1
3 1 11 1
4 2 3 1
5 2 6 2
6 3 4 2
7 4 5 1
8 5 7 2
9 6 7 1
10 6 9 1
11 7 8 1
12 9 10 2
13 10 15 1
14 11 12 1
15 12 14 1
16 13 14 1
17 15 16 1
18 16 17 1
19 16 19 2
20 17 18 2
21 18 20 1
22 18 22 1
23 19 21 1
24 20 24 1
25 21 22 2
26 22 23 1
27 23 24 1
@<TRIPOS>SUBSTRUCTURE
1	UNK0	1	GROUP	1 ****	UNK
