# created with PyMOL 2.5.0
@<TRIPOS>MOLECULE
MOL
27 29 1                 
SMALL
USER_CHARGES
@<TRIPOS>ATOM
1	  C1	6.033	8.955	23.428	C.3	1	UNK0	0.000	
2	  O1	5.570	10.335	23.122	O.3	1	UNK0	0.000	
3	  C2	7.390	9.207	24.057	C.3	1	UNK0	0.000	
4	  O2	8.219	8.035	23.914	O.3	1	UNK0	0.000	
5	  C3	7.985	10.344	23.130	C.3	1	UNK0	0.000	
6	  O3	8.415	9.787	21.850	O.3	1	UNK0	0.000	
7	  C4	6.701	11.165	22.845	C.3	1	UNK0	0.000	
8	  N1	6.589	12.411	23.720	N.pl3	1	UNK0	0.000	
9	  C5	7.584	13.177	24.119	C.2	1	UNK0	0.000	
10	  N2	7.182	14.200	24.771	N.2	1	UNK0	0.000	
11	  C6	5.793	14.094	24.795	C.2	1	UNK0	0.000	
12	  C7	4.736	14.909	25.323	C.2	1	UNK0	0.000	
13	  N3	4.948	16.130	25.913	N.pl3	1	UNK0	0.000	
14	  N4	3.481	14.485	25.140	N.2	1	UNK0	0.000	
15	  C8	3.268	13.368	24.480	C.2	1	UNK0	0.000	
16	  N5	4.176	12.560	23.940	N.2	1	UNK0	0.000	
17	  C9	5.424	12.981	24.137	C.2	1	UNK0	0.000	
18	 C10	5.009	8.332	24.344	C.3	1	UNK0	0.000	
19	  O4	4.005	9.285	24.768	O.3	1	UNK0	0.000	
20	  P1	2.639	9.404	23.936	P.3	1	UNK0	0.000	
21	  O5	1.513	9.525	24.920	O.co2	1	UNK0	0.000	
22	  O6	2.736	10.408	22.867	O.co2	1	UNK0	0.000	
23	  O7	2.520	7.918	23.282	O.3	1	UNK0	0.000	
24	  P2	1.462	6.777	23.483	P.3	1	UNK0	0.000	
25	  O8	1.285	6.072	22.138	O.co2	1	UNK0	0.000	
26	  O9	0.242	7.445	24.015	O.co2	1	UNK0	0.000	
27	 O10	2.231	5.897	24.512	O.co2	1	UNK0	0.000	
@<TRIPOS>BOND
1 1 2 1
2 1 3 1
3 1 18 1
4 2 7 1
5 3 4 1
6 3 5 1
7 5 6 1
8 5 7 1
9 7 8 1
10 8 9 1
11 8 17 1
12 9 10 2
13 10 11 1
14 11 12 2
15 11 17 1
16 12 13 1
17 12 14 1
18 14 15 2
19 15 16 1
20 16 17 2
21 18 19 1
22 19 20 1
23 20 21 2
24 20 22 1
25 20 23 1
26 23 24 1
27 24 25 1
28 24 26 1
29 24 27 2
@<TRIPOS>SUBSTRUCTURE
1	UNK0	1	GROUP	1 ****	UNK
