# created with PyMOL 2.5.0
@<TRIPOS>MOLECULE
MOL
44 45 1                 
SMALL
USER_CHARGES
@<TRIPOS>ATOM
1	  C1	3.186	7.246	23.039	C.3	1	UNK0	0.000	
2	  C2	2.852	6.514	24.401	C.3	1	UNK0	0.000	
3	  C3	1.430	5.945	24.739	C.3	1	UNK0	0.000	
4	  C4	0.391	6.903	24.105	C.3	1	UNK0	0.000	
5	  C5	1.158	5.669	26.364	C.3	1	UNK0	0.000	
6	  C6	1.383	6.909	27.292	C.2	1	UNK0	0.000	
7	  C7	2.536	7.314	28.001	C.2	1	UNK0	0.000	
8	  C8	2.604	8.572	28.841	C.2	1	UNK0	0.000	
9	  O1	3.666	8.848	29.406	O.2	1	UNK0	0.000	
10	  C9	1.382	9.431	28.959	C.2	1	UNK0	0.000	
11	 C10	0.210	9.079	28.314	C.2	1	UNK0	0.000	
12	  N1	-1.039	9.771	28.343	N.pl3	1	UNK0	0.000	
13	 C11	-2.014	10.307	27.412	C.2	1	UNK0	0.000	
14	  O2	-2.928	10.796	27.876	O.2	1	UNK0	0.000	
15	 C12	-1.755	10.166	25.895	C.2	1	UNK0	0.000	
16	 C13	-2.872	9.534	25.099	C.3	1	UNK0	0.000	
17	 C14	-0.549	10.597	25.390	C.2	1	UNK0	0.000	
18	 C15	-0.050	10.555	24.009	C.2	1	UNK0	0.000	
19	 C16	0.903	11.331	23.508	C.2	1	UNK0	0.000	
20	 C17	1.663	12.408	24.230	C.3	1	UNK0	0.000	
21	 C18	3.228	12.258	24.115	C.3	1	UNK0	0.000	
22	 C19	3.878	10.852	24.638	C.2	1	UNK0	0.000	
23	 C20	3.761	10.563	26.131	C.3	1	UNK0	0.000	
24	 C21	4.466	10.084	23.764	C.2	1	UNK0	0.000	
25	 C22	5.174	8.753	23.917	C.3	1	UNK0	0.000	
26	 C23	6.664	9.116	23.736	C.3	1	UNK0	0.000	
27	 C24	4.696	7.693	22.915	C.3	1	UNK0	0.000	
28	  O3	5.487	6.489	23.206	O.3	1	UNK0	0.000	
29	 C25	0.168	7.786	27.443	C.2	1	UNK0	0.000	
30	  O4	-0.886	7.474	26.859	O.2	1	UNK0	0.000	
31	 C26	3.903	6.194	20.787	C.3	1	UNK0	0.000	
32	  O5	2.865	6.283	22.020	O.3	1	UNK0	0.000	
33	  N2	3.773	6.561	27.993	N.pl3	1	UNK0	0.000	
34	 C27	4.142	5.559	28.985	C.3	1	UNK0	0.000	
35	 C28	3.342	5.442	30.341	C.3	1	UNK0	0.000	
36	  N3	2.694	6.562	31.183	N.3	1	UNK0	0.000	
37	 C29	3.006	6.397	32.577	C.3	1	UNK0	0.000	
38	 C30	1.262	6.556	31.231	C.3	1	UNK0	0.000	
39	  O6	1.377	13.797	23.682	O.3	1	UNK0	0.000	
40	 C31	0.320	14.014	22.819	C.3	1	UNK0	0.000	
41	  O7	3.855	13.292	24.828	O.3	1	UNK0	0.000	
42	 C32	5.208	13.537	24.520	C.2	1	UNK0	0.000	
43	  N4	5.700	14.401	25.431	N.pl3	1	UNK0	0.000	
44	  O8	5.848	13.057	23.595	O.co2	1	UNK0	0.000	
@<TRIPOS>BOND
1 1 2 1
2 1 27 1
3 1 32 1
4 2 3 1
5 3 4 1
6 3 5 1
7 5 6 1
8 6 7 2
9 6 29 1
10 7 8 1
11 7 33 1
12 8 9 2
13 8 10 1
14 10 11 2
15 11 12 1
16 11 29 1
17 12 13 1
18 13 14 2
19 13 15 1
20 15 16 1
21 15 17 2
22 17 18 1
23 18 19 2
24 19 20 1
25 20 21 1
26 20 39 1
27 21 22 1
28 21 41 1
29 22 23 1
30 22 24 2
31 24 25 1
32 25 26 1
33 25 27 1
34 27 28 1
35 29 30 2
36 31 32 1
37 33 34 1
38 34 35 1
39 35 36 1
40 36 37 1
41 36 38 1
42 39 40 1
43 41 42 1
44 42 43 1
45 42 44 2
@<TRIPOS>SUBSTRUCTURE
1	UNK0	1	GROUP	1 ****	UNK
