# created with PyMOL 2.5.0
@<TRIPOS>MOLECULE
MOL
27 29 1                 
SMALL
USER_CHARGES
@<TRIPOS>ATOM
1	  C1	1.919	9.351	24.397	C.3	1	UNK0	0.000	
2	  O1	1.876	10.732	23.847	O.3	1	UNK0	0.000	
3	  C2	3.361	9.233	24.851	C.3	1	UNK0	0.000	
4	  O2	3.747	7.844	24.891	O.3	1	UNK0	0.000	
5	  C3	4.145	9.927	23.662	C.3	1	UNK0	0.000	
6	  O3	4.189	9.046	22.498	O.3	1	UNK0	0.000	
7	  C4	3.160	11.071	23.314	C.3	1	UNK0	0.000	
8	  N1	3.573	12.412	23.915	N.pl3	1	UNK0	0.000	
9	  C5	2.771	13.299	24.469	C.2	1	UNK0	0.000	
10	  N2	3.407	14.291	24.964	N.2	1	UNK0	0.000	
11	  C6	4.751	14.023	24.714	C.2	1	UNK0	0.000	
12	  C7	5.980	14.695	25.026	C.2	1	UNK0	0.000	
13	  N3	6.044	15.835	25.787	N.pl3	1	UNK0	0.000	
14	  N4	7.117	14.116	24.625	N.2	1	UNK0	0.000	
15	  C8	7.066	12.967	23.990	C.2	1	UNK0	0.000	
16	  N5	5.983	12.263	23.674	N.2	1	UNK0	0.000	
17	  C9	4.854	12.850	24.064	C.2	1	UNK0	0.000	
18	 C10	0.893	9.278	25.501	C.3	1	UNK0	0.000	
19	  O4	-0.447	9.542	25.019	O.3	1	UNK0	0.000	
20	  P1	-1.081	10.999	25.231	P.3	1	UNK0	0.000	
21	  O5	-2.121	10.894	26.307	O.co2	1	UNK0	0.000	
22	  O6	-0.044	12.032	25.369	O.co2	1	UNK0	0.000	
23	  O7	-1.887	11.217	23.833	O.3	1	UNK0	0.000	
24	  P2	-1.913	12.418	22.825	P.3	1	UNK0	0.000	
25	  O8	-2.826	13.493	23.414	O.co2	1	UNK0	0.000	
26	  O9	-2.363	11.845	21.525	O.co2	1	UNK0	0.000	
27	 O10	-0.412	12.826	22.878	O.co2	1	UNK0	0.000	
@<TRIPOS>BOND
1 1 2 1
2 1 3 1
3 1 18 1
4 2 7 1
5 3 4 1
6 3 5 1
7 5 6 1
8 5 7 1
9 7 8 1
10 8 9 1
11 8 17 1
12 9 10 2
13 10 11 1
14 11 12 2
15 11 17 1
16 12 13 1
17 12 14 1
18 14 15 2
19 15 16 1
20 16 17 2
21 18 19 1
22 19 20 1
23 20 21 2
24 20 22 1
25 20 23 1
26 23 24 1
27 24 25 1
28 24 26 1
29 24 27 2
@<TRIPOS>SUBSTRUCTURE
1	UNK0	1	GROUP	1 ****	UNK
