# created with PyMOL 2.5.0
@<TRIPOS>MOLECULE
MOL
48 50 1                 
SMALL
USER_CHARGES
@<TRIPOS>ATOM
1	 H01	5.263	16.921	26.350	 H	1	UNK0	0.000	
2	 H12	-2.318	13.525	22.392	 H	1	UNK0	0.000	
3	 H04	4.414	10.179	23.934	 H	1	UNK0	0.000	
4	 H03	9.302	15.298	24.643	 H	1	UNK0	0.000	
5	 H02	4.049	15.718	25.975	 H	1	UNK0	0.000	
6	 H11	2.311	8.947	27.689	 H	1	UNK0	0.000	
7	 H09	1.371	8.420	26.273	 H	1	UNK0	0.000	
8	 H08	2.061	12.336	22.164	 H	1	UNK0	0.000	
9	 H15	7.488	11.551	22.121	 H	1	UNK0	0.000	
10	 H07	-1.234	11.500	24.833	 H	1	UNK0	0.000	
11	 H06	0.321	10.155	26.310	 H	1	UNK0	0.000	
12	 H05	4.036	11.032	22.354	 H	1	UNK0	0.000	
13	 H23	7.904	8.005	25.524	 H	1	UNK0	0.000	
14	 H14	-2.173	11.892	23.082	 H	1	UNK0	0.000	
15	 H18	8.803	10.718	23.683	 H	1	UNK0	0.000	
16	 H17	7.304	10.220	24.709	 H	1	UNK0	0.000	
17	 H16	6.091	10.448	22.509	 H	1	UNK0	0.000	
18	 H19	9.143	8.727	23.438	 H	1	UNK0	0.000	
19	 H22	8.485	6.802	24.347	 H	1	UNK0	0.000	
20	 H21	6.763	7.251	24.386	 H	1	UNK0	0.000	
21	 H20	7.442	8.517	22.614	 H	1	UNK0	0.000	
22	 H10	3.022	7.805	26.523	 H	1	UNK0	0.000	
23	 H13	-1.930	12.145	21.337	 H	1	UNK0	0.000	
24	  C1	4.935	12.205	23.881	C.2	1	UNK0	0.000	
25	  N1	4.578	13.335	24.512	N.2	1	UNK0	0.000	
26	  C2	5.719	14.038	24.649	C.2	1	UNK0	0.000	
27	  C3	5.993	15.250	25.265	C.2	1	UNK0	0.000	
28	  N2	5.005	16.040	25.928	N.pl3	1	UNK0	0.000	
29	  C4	6.745	13.323	24.079	C.2	1	UNK0	0.000	
30	  N3	8.003	13.765	24.010	N.2	1	UNK0	0.000	
31	  C5	8.270	14.947	24.618	C.2	1	UNK0	0.000	
32	  N4	7.249	15.763	25.237	N.2	1	UNK0	0.000	
33	  N5	6.226	12.218	23.618	N.pl3	1	UNK0	0.000	
34	  C6	4.020	11.069	23.443	C.3	1	UNK0	0.000	
35	  C7	0.693	10.650	25.413	C.2	1	UNK0	0.000	
36	  C8	2.055	10.550	25.047	C.2	1	UNK0	0.000	
37	  C9	-0.175	11.402	24.593	C.2	1	UNK0	0.000	
38	 C10	0.373	12.021	23.458	C.2	1	UNK0	0.000	
39	 C11	1.701	11.878	23.085	C.2	1	UNK0	0.000	
40	 C12	2.568	11.156	23.880	C.2	1	UNK0	0.000	
41	 C13	2.368	8.670	26.637	C.3	1	UNK0	0.000	
42	  O1	2.902	9.793	25.863	O.3	1	UNK0	0.000	
43	  O2	-0.402	12.795	22.552	O.3	1	UNK0	0.000	
44	 C14	-1.786	12.576	22.328	C.3	1	UNK0	0.000	
45	 C15	6.874	11.098	22.900	C.3	1	UNK0	0.000	
46	 C16	7.824	10.243	23.751	C.3	1	UNK0	0.000	
47	 C17	8.054	8.756	23.484	C.3	1	UNK0	0.000	
48	 C18	7.781	7.618	24.513	C.3	1	UNK0	0.000	
@<TRIPOS>BOND
1 24 25 2
2 24 33 1
3 24 34 1
4 25 26 1
5 26 27 2
6 26 29 1
7 27 28 1
8 27 32 1
9 1 28 1
10 5 28 1
11 29 30 2
12 29 33 1
13 30 31 1
14 4 31 1
15 31 32 2
16 33 45 1
17 3 34 1
18 12 34 1
19 34 40 1
20 11 35 1
21 35 36 2
22 35 37 1
23 36 40 1
24 36 42 1
25 10 37 1
26 37 38 2
27 38 39 1
28 38 43 1
29 8 39 1
30 39 40 2
31 6 41 1
32 7 41 1
33 22 41 1
34 41 42 1
35 43 44 1
36 2 44 1
37 14 44 1
38 23 44 1
39 9 45 1
40 17 45 1
41 45 46 1
42 15 46 1
43 16 46 1
44 46 47 1
45 18 47 1
46 21 47 1
47 47 48 1
48 13 48 1
49 19 48 1
50 20 48 1
@<TRIPOS>SUBSTRUCTURE
1	UNK0	1	GROUP	1 ****	UNK
