# created with PyMOL 2.5.0
@<TRIPOS>MOLECULE
MOL
44 46 1                 
SMALL
USER_CHARGES
@<TRIPOS>ATOM
1	 H10	7.941	8.131	25.391	 H	1	UNK0	0.000	
2	 H02	5.214	17.081	26.285	 H	1	UNK0	0.000	
3	 H04	7.683	11.675	22.226	 H	1	UNK0	0.000	
4	 H01	9.381	15.456	24.561	 H	1	UNK0	0.000	
5	 H06	7.069	10.171	24.710	 H	1	UNK0	0.000	
6	 H05	6.257	10.590	22.328	 H	1	UNK0	0.000	
7	 H09	8.492	7.045	24.092	 H	1	UNK0	0.000	
8	 H08	6.768	7.462	24.232	 H	1	UNK0	0.000	
9	 H03	4.056	15.813	25.951	 H	1	UNK0	0.000	
10	 H07	8.675	10.793	24.082	 H	1	UNK0	0.000	
11	 H13	4.698	10.289	23.744	 H	1	UNK0	0.000	
12	 H12	7.395	8.893	22.535	 H	1	UNK0	0.000	
13	 H11	9.089	9.081	23.297	 H	1	UNK0	0.000	
14	 H14	4.053	11.303	22.359	 H	1	UNK0	0.000	
15	 H18	1.442	9.163	26.530	 H	1	UNK0	0.000	
16	 H17	3.670	9.595	25.430	 H	1	UNK0	0.000	
17	 H16	-0.539	11.887	23.819	 H	1	UNK0	0.000	
18	 H19	-2.113	10.348	27.512	 H	1	UNK0	0.000	
19	 H15	1.666	12.369	22.745	 H	1	UNK0	0.000	
20	 H21	-0.710	11.442	27.539	 H	1	UNK0	0.000	
21	 H20	-0.483	9.695	27.801	 H	1	UNK0	0.000	
22	  N1	6.238	12.236	23.595	N.pl3	1	UNK0	0.000	
23	  C1	6.694	13.373	24.095	C.2	1	UNK0	0.000	
24	  N2	8.027	13.777	23.963	N.2	1	UNK0	0.000	
25	  C2	8.365	15.062	24.561	C.2	1	UNK0	0.000	
26	  N3	7.271	15.771	25.147	N.2	1	UNK0	0.000	
27	  C3	5.646	14.174	24.767	C.2	1	UNK0	0.000	
28	  C4	5.969	15.443	25.305	C.2	1	UNK0	0.000	
29	  N4	4.998	16.174	25.897	N.pl3	1	UNK0	0.000	
30	  N5	4.505	13.455	24.570	N.2	1	UNK0	0.000	
31	  C5	4.961	12.358	23.971	C.2	1	UNK0	0.000	
32	  C6	6.965	11.197	22.892	C.3	1	UNK0	0.000	
33	  C7	7.729	10.303	23.853	C.3	1	UNK0	0.000	
34	  C8	7.786	7.833	24.354	C.3	1	UNK0	0.000	
35	  C9	8.006	9.060	23.422	C.3	1	UNK0	0.000	
36	 C10	4.149	11.179	23.438	C.3	1	UNK0	0.000	
37	 C11	2.751	11.006	24.009	C.2	1	UNK0	0.000	
38	 C12	1.603	11.656	23.566	C.2	1	UNK0	0.000	
39	 C13	0.370	11.397	24.169	C.2	1	UNK0	0.000	
40	 C14	2.759	10.087	25.089	C.2	1	UNK0	0.000	
41	 C15	1.506	9.855	25.690	C.2	1	UNK0	0.000	
42	 C16	0.335	10.489	25.237	C.2	1	UNK0	0.000	
43	  O1	-0.886	10.259	25.858	O.3	1	UNK0	0.000	
44	 C17	-1.058	10.447	27.260	C.3	1	UNK0	0.000	
@<TRIPOS>BOND
1 22 23 1
2 22 31 1
3 22 32 1
4 23 24 1
5 23 27 2
6 24 25 2
7 4 25 1
8 25 26 1
9 26 28 2
10 27 28 1
11 27 30 1
12 28 29 1
13 2 29 1
14 9 29 1
15 30 31 2
16 31 36 1
17 3 32 1
18 6 32 1
19 32 33 1
20 5 33 1
21 10 33 1
22 33 35 1
23 1 34 1
24 7 34 1
25 8 34 1
26 34 35 1
27 12 35 1
28 13 35 1
29 11 36 1
30 14 36 1
31 36 37 1
32 37 38 2
33 37 40 1
34 19 38 1
35 38 39 1
36 17 39 1
37 39 42 2
38 16 40 1
39 40 41 2
40 15 41 1
41 41 42 1
42 42 43 1
43 43 44 1
44 18 44 1
45 20 44 1
46 21 44 1
@<TRIPOS>SUBSTRUCTURE
1	UNK0	1	GROUP	1 ****	UNK
