# created with PyMOL 2.5.0
@<TRIPOS>MOLECULE
MOL
48 50 1                 
SMALL
USER_CHARGES
@<TRIPOS>ATOM
1	 H01	9.183	6.554	24.721	 H	1	UNK0	0.000	
2	 H12	12.313	14.751	26.191	 H	1	UNK0	0.000	
3	 H04	5.982	13.045	23.084	 H	1	UNK0	0.000	
4	 H03	4.532	6.322	24.303	 H	1	UNK0	0.000	
5	 H02	9.619	8.230	24.473	 H	1	UNK0	0.000	
6	 H11	4.074	16.276	25.342	 H	1	UNK0	0.000	
7	 H09	3.336	14.666	25.523	 H	1	UNK0	0.000	
8	 H08	9.376	12.678	24.493	 H	1	UNK0	0.000	
9	 H15	3.856	10.889	22.538	 H	1	UNK0	0.000	
10	 H07	8.746	15.661	27.557	 H	1	UNK0	0.000	
11	 H06	6.375	15.988	26.732	 H	1	UNK0	0.000	
12	 H05	7.723	12.777	22.571	 H	1	UNK0	0.000	
13	 H23	1.257	13.254	22.843	 H	1	UNK0	0.000	
14	 H14	11.681	14.760	27.854	 H	1	UNK0	0.000	
15	 H18	3.361	10.413	24.947	 H	1	UNK0	0.000	
16	 H17	3.755	12.246	25.127	 H	1	UNK0	0.000	
17	 H16	4.655	12.413	23.132	 H	1	UNK0	0.000	
18	 H19	1.564	11.795	25.384	 H	1	UNK0	0.000	
19	 H22	2.175	13.975	24.187	 H	1	UNK0	0.000	
20	 H21	0.487	13.469	24.433	 H	1	UNK0	0.000	
21	 H20	1.506	11.134	23.602	 H	1	UNK0	0.000	
22	 H10	4.616	15.189	26.644	 H	1	UNK0	0.000	
23	 H13	10.968	15.833	26.626	 H	1	UNK0	0.000	
24	  C1	6.784	11.189	23.624	C.2	1	UNK0	0.000	
25	  N1	7.745	10.278	23.844	N.2	1	UNK0	0.000	
26	  C2	7.095	9.107	23.992	C.2	1	UNK0	0.000	
27	  C3	7.543	7.829	24.291	C.2	1	UNK0	0.000	
28	  N2	8.915	7.506	24.517	N.pl3	1	UNK0	0.000	
29	  C4	5.747	9.333	23.839	C.2	1	UNK0	0.000	
30	  N3	4.829	8.366	23.886	N.2	1	UNK0	0.000	
31	  C5	5.268	7.118	24.185	C.2	1	UNK0	0.000	
32	  N4	6.666	6.795	24.356	N.2	1	UNK0	0.000	
33	  N5	5.601	10.609	23.612	N.pl3	1	UNK0	0.000	
34	  C6	6.972	12.676	23.354	C.3	1	UNK0	0.000	
35	  C7	7.033	15.257	26.263	C.2	1	UNK0	0.000	
36	  C8	6.581	14.473	25.176	C.2	1	UNK0	0.000	
37	  C9	8.353	15.073	26.727	C.2	1	UNK0	0.000	
38	 C10	9.142	14.106	26.083	C.2	1	UNK0	0.000	
39	 C11	8.702	13.377	24.989	C.2	1	UNK0	0.000	
40	 C12	7.411	13.533	24.528	C.2	1	UNK0	0.000	
41	 C13	4.260	15.237	25.614	C.3	1	UNK0	0.000	
42	  O1	5.273	14.672	24.720	O.3	1	UNK0	0.000	
43	  O2	10.488	13.839	26.453	O.3	1	UNK0	0.000	
44	 C14	11.416	14.854	26.801	C.3	1	UNK0	0.000	
45	 C15	4.367	11.387	23.361	C.3	1	UNK0	0.000	
46	 C16	3.371	11.419	24.529	C.3	1	UNK0	0.000	
47	 C17	1.906	11.819	24.349	C.3	1	UNK0	0.000	
48	 C18	1.420	13.235	23.921	C.3	1	UNK0	0.000	
@<TRIPOS>BOND
1 24 25 2
2 24 33 1
3 24 34 1
4 25 26 1
5 26 27 2
6 26 29 1
7 27 28 1
8 27 32 1
9 1 28 1
10 5 28 1
11 29 30 2
12 29 33 1
13 30 31 1
14 4 31 1
15 31 32 2
16 33 45 1
17 3 34 1
18 12 34 1
19 34 40 1
20 11 35 1
21 35 36 2
22 35 37 1
23 36 40 1
24 36 42 1
25 10 37 1
26 37 38 2
27 38 39 1
28 38 43 1
29 8 39 1
30 39 40 2
31 6 41 1
32 7 41 1
33 22 41 1
34 41 42 1
35 43 44 1
36 2 44 1
37 14 44 1
38 23 44 1
39 9 45 1
40 17 45 1
41 45 46 1
42 15 46 1
43 16 46 1
44 46 47 1
45 18 47 1
46 21 47 1
47 47 48 1
48 13 48 1
49 19 48 1
50 20 48 1
@<TRIPOS>SUBSTRUCTURE
1	UNK0	1	GROUP	1 ****	UNK
