# created with PyMOL 2.5.0
@<TRIPOS>MOLECULE
MOL
44 46 1                 
SMALL
USER_CHARGES
@<TRIPOS>ATOM
1	 H10	7.884	8.194	25.385	 H	1	UNK0	0.000	
2	 H02	5.220	17.083	26.340	 H	1	UNK0	0.000	
3	 H04	7.602	11.706	22.192	 H	1	UNK0	0.000	
4	 H01	9.331	15.539	24.419	 H	1	UNK0	0.000	
5	 H06	7.166	10.236	24.728	 H	1	UNK0	0.000	
6	 H05	6.209	10.589	22.374	 H	1	UNK0	0.000	
7	 H09	8.471	7.088	24.119	 H	1	UNK0	0.000	
8	 H08	6.745	7.512	24.199	 H	1	UNK0	0.000	
9	 H03	4.075	15.788	26.071	 H	1	UNK0	0.000	
10	 H07	8.722	10.845	23.972	 H	1	UNK0	0.000	
11	 H13	4.425	10.319	24.242	 H	1	UNK0	0.000	
12	 H12	7.401	8.934	22.517	 H	1	UNK0	0.000	
13	 H11	9.096	9.089	23.284	 H	1	UNK0	0.000	
14	 H14	4.387	10.980	22.532	 H	1	UNK0	0.000	
15	 H18	0.297	13.236	22.259	 H	1	UNK0	0.000	
16	 H17	2.794	12.882	22.224	 H	1	UNK0	0.000	
17	 H16	-0.210	10.078	25.168	 H	1	UNK0	0.000	
18	 H19	-3.024	13.085	23.108	 H	1	UNK0	0.000	
19	 H15	2.256	9.674	25.112	 H	1	UNK0	0.000	
20	 H21	-2.375	11.986	21.867	 H	1	UNK0	0.000	
21	 H20	-1.449	13.427	22.353	 H	1	UNK0	0.000	
22	  N1	6.216	12.244	23.629	N.pl3	1	UNK0	0.000	
23	  C1	6.672	13.394	24.100	C.2	1	UNK0	0.000	
24	  N2	7.987	13.826	23.899	N.2	1	UNK0	0.000	
25	  C2	8.325	15.123	24.472	C.2	1	UNK0	0.000	
26	  N3	7.247	15.811	25.108	N.2	1	UNK0	0.000	
27	  C3	5.640	14.177	24.819	C.2	1	UNK0	0.000	
28	  C4	5.962	15.456	25.332	C.2	1	UNK0	0.000	
29	  N4	5.005	16.169	25.968	N.pl3	1	UNK0	0.000	
30	  N5	4.507	13.431	24.683	N.2	1	UNK0	0.000	
31	  C5	4.958	12.341	24.068	C.2	1	UNK0	0.000	
32	  C6	6.930	11.217	22.897	C.3	1	UNK0	0.000	
33	  C7	7.763	10.348	23.823	C.3	1	UNK0	0.000	
34	  C8	7.760	7.882	24.348	C.3	1	UNK0	0.000	
35	  C9	8.012	9.095	23.405	C.3	1	UNK0	0.000	
36	 C10	4.146	11.141	23.583	C.3	1	UNK0	0.000	
37	 C11	2.635	11.253	23.698	C.2	1	UNK0	0.000	
38	 C12	1.817	10.464	24.501	C.2	1	UNK0	0.000	
39	 C13	0.438	10.679	24.529	C.2	1	UNK0	0.000	
40	 C14	2.141	12.280	22.854	C.2	1	UNK0	0.000	
41	 C15	0.744	12.467	22.889	C.2	1	UNK0	0.000	
42	 C16	-0.089	11.689	23.713	C.2	1	UNK0	0.000	
43	  O1	-1.465	11.879	23.716	O.3	1	UNK0	0.000	
44	 C17	-2.116	12.639	22.701	C.3	1	UNK0	0.000	
@<TRIPOS>BOND
1 22 23 1
2 22 31 1
3 22 32 1
4 23 24 1
5 23 27 2
6 24 25 2
7 4 25 1
8 25 26 1
9 26 28 2
10 27 28 1
11 27 30 1
12 28 29 1
13 2 29 1
14 9 29 1
15 30 31 2
16 31 36 1
17 3 32 1
18 6 32 1
19 32 33 1
20 5 33 1
21 10 33 1
22 33 35 1
23 1 34 1
24 7 34 1
25 8 34 1
26 34 35 1
27 12 35 1
28 13 35 1
29 11 36 1
30 14 36 1
31 36 37 1
32 37 38 2
33 37 40 1
34 19 38 1
35 38 39 1
36 17 39 1
37 39 42 2
38 16 40 1
39 40 41 2
40 15 41 1
41 41 42 1
42 42 43 1
43 43 44 1
44 18 44 1
45 20 44 1
46 21 44 1
@<TRIPOS>SUBSTRUCTURE
1	UNK0	1	GROUP	1 ****	UNK
