# created with PyMOL 2.5.0
@<TRIPOS>MOLECULE
MOL
51 53 1                 
SMALL
USER_CHARGES
@<TRIPOS>ATOM
1	 H20	9.158	9.213	23.461	 H	1	UNK0	0.000	
2	 H21	7.760	9.167	22.299	 H	1	UNK0	0.000	
3	 H18	6.922	10.262	24.793	 H	1	UNK0	0.000	
4	 H22	6.926	6.095	25.214	 H	1	UNK0	0.000	
5	 H01	4.494	16.796	26.509	 H	1	UNK0	0.000	
6	 H19	8.414	11.107	24.266	 H	1	UNK0	0.000	
7	 H04	4.230	10.389	22.696	 H	1	UNK0	0.000	
8	 H03	8.624	15.430	24.971	 H	1	UNK0	0.000	
9	 H10	2.727	8.537	28.887	 H	1	UNK0	0.000	
10	 H02	3.345	15.574	26.012	 H	1	UNK0	0.000	
11	 H08	-1.154	10.278	28.407	 H	1	UNK0	0.000	
12	 H07	-1.780	9.539	26.914	 H	1	UNK0	0.000	
13	 H06	4.505	8.747	24.315	 H	1	UNK0	0.000	
14	 H09	-1.395	11.275	26.953	 H	1	UNK0	0.000	
15	 H13	4.631	5.792	25.020	 H	1	UNK0	0.000	
16	 H12	2.110	6.884	29.118	 H	1	UNK0	0.000	
17	 H11	1.105	8.281	29.572	 H	1	UNK0	0.000	
18	 H14	3.446	5.024	26.102	 H	1	UNK0	0.000	
19	 H17	6.130	10.621	22.343	 H	1	UNK0	0.000	
20	 H16	7.417	11.861	22.286	 H	1	UNK0	0.000	
21	 H15	2.890	5.960	24.694	 H	1	UNK0	0.000	
22	 H05	2.828	11.522	22.668	 H	1	UNK0	0.000	
23	  C1	4.513	12.174	23.811	C.2	1	UNK0	0.000	
24	  N1	4.077	13.241	24.492	N.2	1	UNK0	0.000	
25	  C2	5.140	13.994	24.763	C.2	1	UNK0	0.000	
26	  C3	5.357	15.173	25.425	C.2	1	UNK0	0.000	
27	  N2	4.293	15.922	26.044	N.pl3	1	UNK0	0.000	
28	  C4	6.217	13.384	24.200	C.2	1	UNK0	0.000	
29	  N3	7.474	13.827	24.255	N.2	1	UNK0	0.000	
30	  C5	7.626	14.998	24.899	C.2	1	UNK0	0.000	
31	  N4	6.596	15.656	25.460	N.2	1	UNK0	0.000	
32	  N5	5.861	12.258	23.619	N.pl3	1	UNK0	0.000	
33	  C6	3.610	11.070	23.278	C.3	1	UNK0	0.000	
34	 Cl1	0.950	12.179	24.651	Cl	1	UNK0	0.000	
35	  C7	1.763	10.661	25.060	C.2	1	UNK0	0.000	
36	  C8	1.266	9.844	26.091	C.2	1	UNK0	0.000	
37	  C9	1.895	8.680	26.463	C.2	1	UNK0	0.000	
38	 C10	3.053	8.273	25.841	C.2	1	UNK0	0.000	
39	 C11	3.585	9.060	24.809	C.2	1	UNK0	0.000	
40	 C12	2.949	10.253	24.400	C.2	1	UNK0	0.000	
41	  O1	0.131	10.024	26.932	O.3	1	UNK0	0.000	
42	 C13	-1.103	10.291	27.319	C.3	1	UNK0	0.000	
43	  O2	1.268	7.933	27.518	O.3	1	UNK0	0.000	
44	 C14	1.838	7.907	28.858	C.3	1	UNK0	0.000	
45	  O3	3.612	7.089	26.285	O.3	1	UNK0	0.000	
46	 C15	3.646	5.893	25.476	C.3	1	UNK0	0.000	
47	 C16	6.737	11.307	22.934	C.3	1	UNK0	0.000	
48	 C17	7.563	10.506	23.946	C.3	1	UNK0	0.000	
49	 C18	8.074	9.205	23.342	C.3	1	UNK0	0.000	
50	 C19	7.569	7.935	24.042	C.1	1	UNK0	0.000	
51	 C20	7.234	6.977	24.652	C.1	1	UNK0	0.000	
@<TRIPOS>BOND
1 23 24 2
2 23 32 1
3 23 33 1
4 24 25 1
5 25 26 2
6 25 28 1
7 26 27 1
8 26 31 1
9 5 27 1
10 10 27 1
11 28 29 2
12 28 32 1
13 29 30 1
14 8 30 1
15 30 31 2
16 32 47 1
17 7 33 1
18 22 33 1
19 33 40 1
20 34 35 1
21 35 36 1
22 35 40 2
23 36 37 2
24 36 41 1
25 37 38 1
26 37 43 1
27 38 39 2
28 38 45 1
29 13 39 1
30 39 40 1
31 41 42 1
32 11 42 1
33 12 42 1
34 14 42 1
35 43 44 1
36 9 44 1
37 16 44 1
38 17 44 1
39 45 46 1
40 15 46 1
41 18 46 1
42 21 46 1
43 19 47 1
44 20 47 1
45 47 48 1
46 3 48 1
47 6 48 1
48 48 49 1
49 1 49 1
50 2 49 1
51 49 50 1
52 50 51 3
53 4 51 1
@<TRIPOS>SUBSTRUCTURE
1	UNK0	1	GROUP	1 ****	UNK
