# created with PyMOL 2.5.0
@<TRIPOS>MOLECULE
MOL
52 54 1                 
SMALL
USER_CHARGES
@<TRIPOS>ATOM
1	 H01	5.151	16.764	26.429	 H	1	UNK0	0.000	
2	 H12	-0.222	10.154	28.254	 H	1	UNK0	0.000	
3	 H04	4.647	10.191	23.276	 H	1	UNK0	0.000	
4	 H03	9.178	15.443	24.689	 H	1	UNK0	0.000	
5	 H02	3.994	15.532	25.978	 H	1	UNK0	0.000	
6	 H11	-1.911	10.435	27.771	 H	1	UNK0	0.000	
7	 H09	-0.954	12.191	22.473	 H	1	UNK0	0.000	
8	 H08	-2.393	12.495	23.476	 H	1	UNK0	0.000	
9	 H15	1.717	8.462	28.607	 H	1	UNK0	0.000	
10	 H07	3.758	9.082	25.159	 H	1	UNK0	0.000	
11	 H05	3.681	11.412	22.288	 H	1	UNK0	0.000	
12	 H06	1.678	12.292	23.181	 H	1	UNK0	0.000	
13	 H23	9.022	8.334	24.408	 H	1	UNK0	0.000	
14	 H14	3.186	8.759	27.648	 H	1	UNK0	0.000	
15	 H18	6.516	10.626	22.103	 H	1	UNK0	0.000	
16	 H17	7.937	11.633	22.304	 H	1	UNK0	0.000	
17	 H16	2.587	7.098	27.865	 H	1	UNK0	0.000	
18	 H19	7.262	10.683	24.887	 H	1	UNK0	0.000	
19	 H22	6.357	8.673	24.763	 H	1	UNK0	0.000	
20	 H21	6.370	8.712	23.007	 H	1	UNK0	0.000	
21	 H20	8.670	10.154	23.867	 H	1	UNK0	0.000	
22	 H10	-1.803	10.831	23.248	 H	1	UNK0	0.000	
23	 H13	-0.647	11.594	27.297	 H	1	UNK0	0.000	
24	 H25	8.458	7.641	22.869	 H	1	UNK0	0.000	
25	 H24	7.895	6.957	24.413	 H	1	UNK0	0.000	
26	  C1	4.956	12.176	23.784	C.2	1	UNK0	0.000	
27	  N1	4.491	13.229	24.465	N.2	1	UNK0	0.000	
28	  C2	5.611	13.967	24.640	C.2	1	UNK0	0.000	
29	  C3	5.911	15.211	25.333	C.2	1	UNK0	0.000	
30	  N2	4.938	15.892	25.966	N.pl3	1	UNK0	0.000	
31	  C4	6.753	13.288	24.039	C.2	1	UNK0	0.000	
32	  N3	7.988	13.818	24.076	N.2	1	UNK0	0.000	
33	  C5	8.177	15.011	24.684	C.2	1	UNK0	0.000	
34	  N4	7.170	15.692	25.288	N.2	1	UNK0	0.000	
35	  N5	6.274	12.185	23.500	N.pl3	1	UNK0	0.000	
36	  C6	4.038	11.095	23.268	C.3	1	UNK0	0.000	
37	  C7	0.468	11.226	24.611	C.2	1	UNK0	0.000	
38	  C8	1.663	11.481	23.909	C.2	1	UNK0	0.000	
39	  C9	0.458	10.116	25.541	C.2	1	UNK0	0.000	
40	 C10	1.673	9.338	25.722	C.2	1	UNK0	0.000	
41	 C11	2.846	9.660	25.011	C.2	1	UNK0	0.000	
42	 C12	2.821	10.744	24.104	C.2	1	UNK0	0.000	
43	 C13	-1.505	11.874	23.359	C.3	1	UNK0	0.000	
44	  O1	-0.661	12.013	24.529	O.3	1	UNK0	0.000	
45	  O2	-0.647	9.799	26.253	O.3	1	UNK0	0.000	
46	 C14	-0.870	10.541	27.468	C.3	1	UNK0	0.000	
47	  O3	1.514	8.271	26.585	O.3	1	UNK0	0.000	
48	 C15	2.294	8.140	27.740	C.3	1	UNK0	0.000	
49	 C16	7.103	11.177	22.837	C.3	1	UNK0	0.000	
50	 C17	7.586	10.242	23.944	C.3	1	UNK0	0.000	
51	 C18	6.991	8.847	23.893	C.3	1	UNK0	0.000	
52	 C19	8.177	7.874	23.896	C.3	1	UNK0	0.000	
@<TRIPOS>BOND
1 26 27 2
2 26 35 1
3 26 36 1
4 27 28 1
5 28 29 2
6 28 31 1
7 29 30 1
8 29 34 1
9 1 30 1
10 5 30 1
11 31 32 2
12 31 35 1
13 32 33 1
14 4 33 1
15 33 34 2
16 35 49 1
17 3 36 1
18 11 36 1
19 36 42 1
20 37 38 2
21 37 39 1
22 37 44 1
23 12 38 1
24 38 42 1
25 39 40 2
26 39 45 1
27 40 41 1
28 40 47 1
29 10 41 1
30 41 42 2
31 7 43 1
32 8 43 1
33 22 43 1
34 43 44 1
35 45 46 1
36 2 46 1
37 6 46 1
38 23 46 1
39 47 48 1
40 9 48 1
41 14 48 1
42 17 48 1
43 15 49 1
44 16 49 1
45 49 50 1
46 18 50 1
47 21 50 1
48 50 51 1
49 19 51 1
50 20 51 1
51 51 52 1
52 13 52 1
53 24 52 1
54 25 52 1
@<TRIPOS>SUBSTRUCTURE
1	UNK0	1	GROUP	1 ****	UNK
