# created with PyMOL 2.5.0
@<TRIPOS>MOLECULE
MOL
25 27 1                 
SMALL
USER_CHARGES
@<TRIPOS>ATOM
1	  C1	5.112	12.052	23.815	C.2	1	UNK0	0.000	
2	  N1	4.649	13.146	24.442	N.2	1	UNK0	0.000	
3	  C2	5.723	13.944	24.600	C.2	1	UNK0	0.000	
4	  C3	5.882	15.173	25.222	C.2	1	UNK0	0.000	
5	  N2	4.820	15.873	25.870	N.pl3	1	UNK0	0.000	
6	  C4	6.816	13.320	24.045	C.2	1	UNK0	0.000	
7	  N3	8.032	13.870	23.998	N.2	1	UNK0	0.000	
8	  C5	8.187	15.068	24.614	C.2	1	UNK0	0.000	
9	  N4	7.090	15.791	25.216	N.2	1	UNK0	0.000	
10	  N5	6.402	12.177	23.574	N.pl3	1	UNK0	0.000	
11	  C6	4.305	10.844	23.360	C.3	1	UNK0	0.000	
12	  C7	0.554	10.792	24.388	C.2	1	UNK0	0.000	
13	  C8	1.743	11.056	23.670	C.2	1	UNK0	0.000	
14	  C9	0.630	10.003	25.556	C.2	1	UNK0	0.000	
15	 C10	1.892	9.515	25.932	C.2	1	UNK0	0.000	
16	 C11	3.057	9.819	25.244	C.2	1	UNK0	0.000	
17	 C12	3.002	10.578	24.094	C.2	1	UNK0	0.000	
18	 C13	0.562	12.810	22.370	C.3	1	UNK0	0.000	
19	  O1	1.655	11.847	22.519	O.3	1	UNK0	0.000	
20	  O2	2.096	8.721	27.093	O.3	1	UNK0	0.000	
21	 C14	1.034	8.160	27.849	C.3	1	UNK0	0.000	
22	 C15	7.155	11.120	22.864	C.3	1	UNK0	0.000	
23	 C16	8.089	10.282	23.750	C.3	1	UNK0	0.000	
24	 C17	7.997	8.758	23.831	C.3	1	UNK0	0.000	
25	 C18	6.667	7.954	23.924	C.3	1	UNK0	0.000	
@<TRIPOS>BOND
1 1 2 2
2 1 10 1
3 1 11 1
4 2 3 1
5 3 4 2
6 3 6 1
7 4 5 1
8 4 9 1
9 6 7 2
10 6 10 1
11 7 8 1
12 8 9 2
13 10 22 1
14 11 17 1
15 12 13 2
16 12 14 1
17 13 17 1
18 13 19 1
19 14 15 2
20 15 16 1
21 15 20 1
22 16 17 2
23 18 19 1
24 20 21 1
25 22 23 1
26 23 24 1
27 24 25 1
@<TRIPOS>SUBSTRUCTURE
1	UNK0	1	GROUP	1 ****	UNK
