data/HSP90/cocry_dataset/1uy7_PU4_LIG.pdb
 OpenBabel03092320563D

 44 46  0  0  0  0  0  0  0  0999 V2000
    0.9954   -0.3007   -0.0830 C   0  0  0  0  0  0  0  0  0  0  0  0
    2.4880   -0.4767   -0.3174 C   0  0  0  0  0  0  0  0  0  0  0  0
    2.9773    0.4667   -1.4139 C   0  0  0  0  0  0  0  0  0  0  0  0
    4.4889    0.3729   -1.6122 C   0  0  0  0  0  0  0  0  0  0  0  0
    4.9929    1.2128   -2.6855 N   0  0  0  0  0  0  0  0  0  0  0  0
    5.5722    0.6948   -3.8205 C   0  0  0  0  0  0  0  0  0  0  0  0
    5.8028   -0.5966   -4.1163 N   0  0  0  0  0  0  0  0  0  0  0  0
    6.3619   -0.7252   -5.3348 C   0  0  0  0  0  0  0  0  0  0  0  0
    6.6627    0.2449   -6.2242 N   0  0  0  0  0  0  0  0  0  0  0  0
    6.4144    1.5277   -5.8783 C   0  0  0  0  0  0  0  0  0  0  0  0
    5.8534    1.7925   -4.6181 C   0  0  0  0  0  0  0  0  0  0  0  0
    5.4799    2.9545   -3.9858 N   0  0  0  0  0  0  0  0  0  0  0  0
    4.9964    2.5975   -2.8047 C   0  0  0  0  0  0  0  0  0  0  0  0
    4.4743    3.5940   -1.7951 C   0  0  0  0  0  0  0  0  0  0  0  0
    5.5098    4.0926   -0.8114 C   0  0  0  0  0  0  0  0  0  0  0  0
    6.6488    4.7793   -1.2524 C   0  0  0  0  0  0  0  0  0  0  0  0
    7.6535    5.1533   -0.3526 C   0  0  0  0  0  0  0  0  0  0  0  0
    7.5266    4.8554    1.0034 C   0  0  0  0  0  0  0  0  0  0  0  0
    6.3443    4.2721    1.4618 C   0  0  0  0  0  0  0  0  0  0  0  0
    5.3404    3.8956    0.5653 C   0  0  0  0  0  0  0  0  0  0  0  0
    8.4740    5.0704    1.9658 O   0  0  0  0  0  0  0  0  0  0  0  0
    9.7643    5.4637    1.5124 C   0  0  0  0  0  0  0  0  0  0  0  0
    6.6915    2.5167   -6.8161 N   0  0  0  0  0  0  0  0  0  0  0  0
    0.6717   -0.8916    0.7791 H   0  0  0  0  0  0  0  0  0  0  0  0
    0.4234   -0.6276   -0.9572 H   0  0  0  0  0  0  0  0  0  0  0  0
    0.7479    0.7481    0.1134 H   0  0  0  0  0  0  0  0  0  0  0  0
    2.6961   -1.5171   -0.5906 H   0  0  0  0  0  0  0  0  0  0  0  0
    3.0242   -0.2691    0.6160 H   0  0  0  0  0  0  0  0  0  0  0  0
    2.6854    1.4799   -1.1360 H   0  0  0  0  0  0  0  0  0  0  0  0
    2.4630    0.2459   -2.3573 H   0  0  0  0  0  0  0  0  0  0  0  0
    4.7384   -0.6640   -1.8514 H   0  0  0  0  0  0  0  0  0  0  0  0
    5.0452    0.6325   -0.7011 H   0  0  0  0  0  0  0  0  0  0  0  0
    6.6077   -1.7398   -5.6418 H   0  0  0  0  0  0  0  0  0  0  0  0
    3.6197    3.1992   -1.2494 H   0  0  0  0  0  0  0  0  0  0  0  0
    4.0805    4.4637   -2.3396 H   0  0  0  0  0  0  0  0  0  0  0  0
    6.7730    5.0077   -2.3106 H   0  0  0  0  0  0  0  0  0  0  0  0
    8.5283    5.6595   -0.7473 H   0  0  0  0  0  0  0  0  0  0  0  0
    6.2152    4.0870    2.5258 H   0  0  0  0  0  0  0  0  0  0  0  0
    4.4357    3.4363    0.9557 H   0  0  0  0  0  0  0  0  0  0  0  0
   10.4635    5.3522    2.3471 H   0  0  0  0  0  0  0  0  0  0  0  0
    9.7519    6.5173    1.2177 H   0  0  0  0  0  0  0  0  0  0  0  0
   10.1308    4.8301    0.6968 H   0  0  0  0  0  0  0  0  0  0  0  0
    6.7081    2.1352   -7.7516 H   0  0  0  0  0  0  0  0  0  0  0  0
    6.1443    3.3586   -6.6675 H   0  0  0  0  0  0  0  0  0  0  0  0
  1  2  1  0  0  0  0
  1 24  1  0  0  0  0
  1 25  1  0  0  0  0
  1 26  1  0  0  0  0
  2  3  1  0  0  0  0
  2 27  1  0  0  0  0
  2 28  1  0  0  0  0
  3  4  1  0  0  0  0
  3 29  1  0  0  0  0
  3 30  1  0  0  0  0
  4  5  1  0  0  0  0
  4 31  1  0  0  0  0
  4 32  1  0  0  0  0
  5  6  1  0  0  0  0
  5 13  1  0  0  0  0
  6  7  1  0  0  0  0
  6 11  2  0  0  0  0
  7  8  2  0  0  0  0
  8  9  1  0  0  0  0
  8 33  1  0  0  0  0
  9 10  2  0  0  0  0
 10 11  1  0  0  0  0
 10 23  1  0  0  0  0
 11 12  1  0  0  0  0
 12 13  2  0  0  0  0
 13 14  1  0  0  0  0
 14 15  1  0  0  0  0
 14 34  1  0  0  0  0
 14 35  1  0  0  0  0
 15 16  1  0  0  0  0
 15 20  2  0  0  0  0
 16 17  2  0  0  0  0
 16 36  1  0  0  0  0
 17 18  1  0  0  0  0
 17 37  1  0  0  0  0
 18 19  2  0  0  0  0
 18 21  1  0  0  0  0
 19 20  1  0  0  0  0
 19 38  1  0  0  0  0
 20 39  1  0  0  0  0
 21 22  1  0  0  0  0
 22 40  1  0  0  0  0
 22 41  1  0  0  0  0
 22 42  1  0  0  0  0
 23 43  1  0  0  0  0
 23 44  1  0  0  0  0
M  END
$$$$
