data/HSP90/cocry_dataset/1uy8_PU5_LIG.pdb
 OpenBabel03092320563D

 44 46  0  0  0  0  0  0  0  0999 V2000
    1.1232   -0.0929   -2.5420 C   0  0  0  0  0  0  0  0  0  0  0  0
    2.1559   -1.0787   -2.0208 C   0  0  0  0  0  0  0  0  0  0  0  0
    3.3444   -0.3504   -1.3883 C   0  0  0  0  0  0  0  0  0  0  0  0
    4.4367   -1.2932   -0.8818 C   0  0  0  0  0  0  0  0  0  0  0  0
    4.9613   -2.2185   -1.8658 N   0  0  0  0  0  0  0  0  0  0  0  0
    4.7724   -3.5788   -1.7788 C   0  0  0  0  0  0  0  0  0  0  0  0
    4.1251   -4.2586   -0.8166 N   0  0  0  0  0  0  0  0  0  0  0  0
    4.1154   -5.5779   -1.0774 C   0  0  0  0  0  0  0  0  0  0  0  0
    4.6379   -6.2250   -2.1405 N   0  0  0  0  0  0  0  0  0  0  0  0
    5.2901   -5.4960   -3.0755 C   0  0  0  0  0  0  0  0  0  0  0  0
    5.3705   -4.1028   -2.9075 C   0  0  0  0  0  0  0  0  0  0  0  0
    5.9249   -3.1023   -3.6747 N   0  0  0  0  0  0  0  0  0  0  0  0
    5.6971   -1.9663   -3.0138 C   0  0  0  0  0  0  0  0  0  0  0  0
    6.1851   -0.6250   -3.4888 C   0  0  0  0  0  0  0  0  0  0  0  0
    7.5438   -0.2590   -2.9357 C   0  0  0  0  0  0  0  0  0  0  0  0
    8.6663   -1.0478   -3.2217 C   0  0  0  0  0  0  0  0  0  0  0  0
    9.8819   -0.8005   -2.5854 C   0  0  0  0  0  0  0  0  0  0  0  0
    9.9993    0.2547   -1.6781 C   0  0  0  0  0  0  0  0  0  0  0  0
    8.9166    1.1032   -1.4498 C   0  0  0  0  0  0  0  0  0  0  0  0
    7.6995    0.8510   -2.0922 C   0  0  0  0  0  0  0  0  0  0  0  0
    8.9083    2.1902   -0.6187 O   0  0  0  0  0  0  0  0  0  0  0  0
   10.0759    2.4040    0.1654 C   0  0  0  0  0  0  0  0  0  0  0  0
    5.8139   -6.1694   -4.1722 N   0  0  0  0  0  0  0  0  0  0  0  0
    0.2934   -0.6280   -3.0141 H   0  0  0  0  0  0  0  0  0  0  0  0
    1.5641    0.5754   -3.2891 H   0  0  0  0  0  0  0  0  0  0  0  0
    0.7187    0.5181   -1.7293 H   0  0  0  0  0  0  0  0  0  0  0  0
    2.4905   -1.7022   -2.8574 H   0  0  0  0  0  0  0  0  0  0  0  0
    1.6896   -1.7428   -1.2848 H   0  0  0  0  0  0  0  0  0  0  0  0
    2.9869    0.2527   -0.5420 H   0  0  0  0  0  0  0  0  0  0  0  0
    3.7566    0.3608   -2.1081 H   0  0  0  0  0  0  0  0  0  0  0  0
    4.0185   -1.8785   -0.0511 H   0  0  0  0  0  0  0  0  0  0  0  0
    5.2818   -0.7344   -0.4693 H   0  0  0  0  0  0  0  0  0  0  0  0
    3.6146   -6.2030   -0.3465 H   0  0  0  0  0  0  0  0  0  0  0  0
    5.4626    0.1613   -3.2589 H   0  0  0  0  0  0  0  0  0  0  0  0
    6.2505   -0.6421   -4.5857 H   0  0  0  0  0  0  0  0  0  0  0  0
    8.5871   -1.8840   -3.9156 H   0  0  0  0  0  0  0  0  0  0  0  0
   10.7329   -1.4495   -2.7769 H   0  0  0  0  0  0  0  0  0  0  0  0
   10.9481    0.3840   -1.1690 H   0  0  0  0  0  0  0  0  0  0  0  0
    6.8629    1.5203   -1.9056 H   0  0  0  0  0  0  0  0  0  0  0  0
    9.9192    3.3102    0.7583 H   0  0  0  0  0  0  0  0  0  0  0  0
   10.9560    2.5698   -0.4645 H   0  0  0  0  0  0  0  0  0  0  0  0
   10.2369    1.5730    0.8604 H   0  0  0  0  0  0  0  0  0  0  0  0
    5.3411   -7.0525   -4.3207 H   0  0  0  0  0  0  0  0  0  0  0  0
    5.9384   -5.5659   -4.9789 H   0  0  0  0  0  0  0  0  0  0  0  0
  1  2  1  0  0  0  0
  1 24  1  0  0  0  0
  1 25  1  0  0  0  0
  1 26  1  0  0  0  0
  2  3  1  0  0  0  0
  2 27  1  0  0  0  0
  2 28  1  0  0  0  0
  3  4  1  0  0  0  0
  3 29  1  0  0  0  0
  3 30  1  0  0  0  0
  4  5  1  0  0  0  0
  4 31  1  0  0  0  0
  4 32  1  0  0  0  0
  5  6  1  0  0  0  0
  5 13  1  0  0  0  0
  6  7  1  0  0  0  0
  6 11  2  0  0  0  0
  7  8  2  0  0  0  0
  8  9  1  0  0  0  0
  8 33  1  0  0  0  0
  9 10  2  0  0  0  0
 10 11  1  0  0  0  0
 10 23  1  0  0  0  0
 11 12  1  0  0  0  0
 12 13  2  0  0  0  0
 13 14  1  0  0  0  0
 14 15  1  0  0  0  0
 14 34  1  0  0  0  0
 14 35  1  0  0  0  0
 15 16  1  0  0  0  0
 15 20  2  0  0  0  0
 16 17  2  0  0  0  0
 16 36  1  0  0  0  0
 17 18  1  0  0  0  0
 17 37  1  0  0  0  0
 18 19  2  0  0  0  0
 18 38  1  0  0  0  0
 19 20  1  0  0  0  0
 19 21  1  0  0  0  0
 20 39  1  0  0  0  0
 21 22  1  0  0  0  0
 22 40  1  0  0  0  0
 22 41  1  0  0  0  0
 22 42  1  0  0  0  0
 23 43  1  0  0  0  0
 23 44  1  0  0  0  0
M  END
$$$$
