data/HSP90/cocry_dataset/1uyf_PU1_LIG.pdb
 OpenBabel03092320563D

 51 53  0  0  0  0  0  0  0  0999 V2000
   -0.9987   -0.7027    2.6448 Cl  0  0  0  0  0  0  0  0  0  0  0  0
   -0.2149   -0.1550    1.1880 C   0  0  0  0  0  0  0  0  0  0  0  0
    0.2888    1.1660    1.0914 C   0  0  0  0  0  0  0  0  0  0  0  0
   -0.1211    2.1892    1.9125 O   0  0  0  0  0  0  0  0  0  0  0  0
   -1.4992    2.2434    2.2813 C   0  0  0  0  0  0  0  0  0  0  0  0
    1.3169    1.4477    0.1574 C   0  0  0  0  0  0  0  0  0  0  0  0
    1.9278    2.6581   -0.0474 O   0  0  0  0  0  0  0  0  0  0  0  0
    1.5328    3.8177    0.6657 C   0  0  0  0  0  0  0  0  0  0  0  0
    1.7811    0.4064   -0.6749 C   0  0  0  0  0  0  0  0  0  0  0  0
    2.8149    0.4702   -1.5825 O   0  0  0  0  0  0  0  0  0  0  0  0
    3.9282    1.3005   -1.2524 C   0  0  0  0  0  0  0  0  0  0  0  0
    1.1201   -0.8322   -0.6869 C   0  0  0  0  0  0  0  0  0  0  0  0
    0.0795   -1.1195    0.2081 C   0  0  0  0  0  0  0  0  0  0  0  0
   -0.6739   -2.4407    0.1022 C   0  0  0  0  0  0  0  0  0  0  0  0
   -2.1577   -2.2690   -0.1648 C   0  0  0  0  0  0  0  0  0  0  0  0
   -3.1047   -2.1954    0.7567 N   0  0  0  0  0  0  0  0  0  0  0  0
   -4.2710   -1.8676    0.0852 C   0  0  0  0  0  0  0  0  0  0  0  0
   -5.5651   -1.5150    0.5170 C   0  0  0  0  0  0  0  0  0  0  0  0
   -5.9640   -1.4537    1.8440 N   0  0  0  0  0  0  0  0  0  0  0  0
   -6.4911   -1.2001   -0.4209 N   0  0  0  0  0  0  0  0  0  0  0  0
   -6.1278   -1.2124   -1.7183 C   0  0  0  0  0  0  0  0  0  0  0  0
   -4.9284   -1.5362   -2.2389 N   0  0  0  0  0  0  0  0  0  0  0  0
   -4.0460   -1.8379   -1.2740 C   0  0  0  0  0  0  0  0  0  0  0  0
   -2.7158   -2.1314   -1.4311 N   0  0  0  0  0  0  0  0  0  0  0  0
   -2.0282   -2.1138   -2.7087 C   0  0  0  0  0  0  0  0  0  0  0  0
   -2.0472   -3.4665   -3.4287 C   0  0  0  0  0  0  0  0  0  0  0  0
   -1.2743   -3.4208   -4.7492 C   0  0  0  0  0  0  0  0  0  0  0  0
    0.1419   -3.1032   -4.5131 C   0  0  0  0  0  0  0  0  0  0  0  0
    1.2789   -2.8032   -4.2474 C   0  0  0  0  0  0  0  0  0  0  0  0
   -7.0714   -0.8368   -2.5968 F   0  0  0  0  0  0  0  0  0  0  0  0
   -1.7994    3.2948    2.3290 H   0  0  0  0  0  0  0  0  0  0  0  0
   -1.6148    1.8405    3.2916 H   0  0  0  0  0  0  0  0  0  0  0  0
   -2.1671    1.7415    1.5721 H   0  0  0  0  0  0  0  0  0  0  0  0
    2.2213    4.6235    0.3890 H   0  0  0  0  0  0  0  0  0  0  0  0
    1.6341    3.6865    1.7461 H   0  0  0  0  0  0  0  0  0  0  0  0
    0.5265    4.1338    0.3735 H   0  0  0  0  0  0  0  0  0  0  0  0
    4.7691    0.9981   -1.8866 H   0  0  0  0  0  0  0  0  0  0  0  0
    4.2444    1.1807   -0.2099 H   0  0  0  0  0  0  0  0  0  0  0  0
    3.7249    2.3475   -1.4938 H   0  0  0  0  0  0  0  0  0  0  0  0
    1.4584   -1.5893   -1.3922 H   0  0  0  0  0  0  0  0  0  0  0  0
   -0.5282   -3.0178    1.0230 H   0  0  0  0  0  0  0  0  0  0  0  0
   -0.2358   -3.0567   -0.6939 H   0  0  0  0  0  0  0  0  0  0  0  0
   -5.4131   -2.0082    2.4806 H   0  0  0  0  0  0  0  0  0  0  0  0
   -6.9698   -1.4483    1.9472 H   0  0  0  0  0  0  0  0  0  0  0  0
   -1.0089   -1.7725   -2.5225 H   0  0  0  0  0  0  0  0  0  0  0  0
   -2.5038   -1.3454   -3.3318 H   0  0  0  0  0  0  0  0  0  0  0  0
   -3.0824   -3.7647   -3.6352 H   0  0  0  0  0  0  0  0  0  0  0  0
   -1.6223   -4.2428   -2.7794 H   0  0  0  0  0  0  0  0  0  0  0  0
   -1.7196   -2.6756   -5.4215 H   0  0  0  0  0  0  0  0  0  0  0  0
   -1.3504   -4.3901   -5.2534 H   0  0  0  0  0  0  0  0  0  0  0  0
    2.2633   -2.5133   -3.9747 H   0  0  0  0  0  0  0  0  0  0  0  0
  1  2  1  0  0  0  0
  2  3  1  0  0  0  0
  2 13  2  0  0  0  0
  3  4  1  0  0  0  0
  3  6  2  0  0  0  0
  4  5  1  0  0  0  0
  5 31  1  0  0  0  0
  5 32  1  0  0  0  0
  5 33  1  0  0  0  0
  6  7  1  0  0  0  0
  6  9  1  0  0  0  0
  7  8  1  0  0  0  0
  8 34  1  0  0  0  0
  8 35  1  0  0  0  0
  8 36  1  0  0  0  0
  9 10  1  0  0  0  0
  9 12  2  0  0  0  0
 10 11  1  0  0  0  0
 11 37  1  0  0  0  0
 11 38  1  0  0  0  0
 11 39  1  0  0  0  0
 12 13  1  0  0  0  0
 12 40  1  0  0  0  0
 13 14  1  0  0  0  0
 14 15  1  0  0  0  0
 14 41  1  0  0  0  0
 14 42  1  0  0  0  0
 15 16  2  0  0  0  0
 15 24  1  0  0  0  0
 16 17  1  0  0  0  0
 17 18  1  0  0  0  0
 17 23  2  0  0  0  0
 18 19  1  0  0  0  0
 18 20  2  0  0  0  0
 19 43  1  0  0  0  0
 19 44  1  0  0  0  0
 20 21  1  0  0  0  0
 21 22  2  0  0  0  0
 21 30  1  0  0  0  0
 22 23  1  0  0  0  0
 23 24  1  0  0  0  0
 24 25  1  0  0  0  0
 25 26  1  0  0  0  0
 25 45  1  0  0  0  0
 25 46  1  0  0  0  0
 26 27  1  0  0  0  0
 26 47  1  0  0  0  0
 26 48  1  0  0  0  0
 27 28  1  0  0  0  0
 27 49  1  0  0  0  0
 27 50  1  0  0  0  0
 28 29  3  0  0  0  0
 29 51  1  0  0  0  0
M  END
$$$$
