# created with PyMOL 2.5.0
@<TRIPOS>MOLECULE
BDB33240
43 45 1                 
SMALL
USER_CHARGES
@<TRIPOS>ATOM
1	 H05	2.770	10.080	22.610	 H	1	UNK0	0.000	
2	 H06	3.580	8.740	22.660	 H	1	UNK0	0.000	
3	 H10	1.110	8.520	27.010	 H	1	UNK0	0.000	
4	 H11	0.150	6.990	28.880	 H	1	UNK0	0.000	
5	 H08	4.350	6.920	19.290	 H	1	UNK0	0.000	
6	 H09	4.100	6.310	20.910	 H	1	UNK0	0.000	
7	 H13	2.610	8.710	28.860	 H	1	UNK0	0.000	
8	 H14	2.190	7.980	30.430	 H	1	UNK0	0.000	
9	 H04	5.510	13.630	24.650	 H	1	UNK0	0.000	
10	 H15	2.470	6.950	29.010	 H	1	UNK0	0.000	
11	 H02	-0.680	13.540	20.320	 H	1	UNK0	0.000	
12	 H01	1.490	10.620	25.980	 H	1	UNK0	0.000	
13	 H03	-2.300	13.150	20.850	 H	1	UNK0	0.000	
14	 H12	0.030	8.520	29.770	 H	1	UNK0	0.000	
15	 H07	4.980	7.680	22.830	 H	1	UNK0	0.000	
16	  C1	1.110	11.950	23.490	C.2	1	UNK0	0.000	
17	  N1	0.560	12.500	22.400	N.2	1	UNK0	0.000	
18	  C2	-0.770	12.520	22.190	C.2	1	UNK0	0.000	
19	  N2	-1.630	11.990	23.060	N.2	1	UNK0	0.000	
20	  C3	0.210	11.390	24.400	C.2	1	UNK0	0.000	
21	  C4	0.490	10.770	25.590	C.2	1	UNK0	0.000	
22	  C5	-1.150	11.440	24.150	C.2	1	UNK0	0.000	
23	  S1	-2.050	10.710	25.390	S.3	1	UNK0	0.000	
24	  C6	-0.650	10.330	26.250	C.2	1	UNK0	0.000	
25	  N3	-1.310	13.130	21.010	N.pl3	1	UNK0	0.000	
26	  C7	2.710	11.990	23.610	C.2	1	UNK0	0.000	
27	  C8	5.530	11.750	23.660	C.2	1	UNK0	0.000	
28	  C9	4.910	12.850	24.200	C.2	1	UNK0	0.000	
29	 C10	3.530	12.980	24.180	C.2	1	UNK0	0.000	
30	 C11	3.360	10.870	23.060	C.2	1	UNK0	0.000	
31	 C12	4.750	10.760	23.090	C.2	1	UNK0	0.000	
32	 Cl1	7.240	11.610	23.700	Cl	1	UNK0	0.000	
33	 Cl2	3.050	14.440	24.920	Cl	1	UNK0	0.000	
34	  O1	5.430	9.670	22.560	O.3	1	UNK0	0.000	
35	 C13	4.600	8.560	22.310	C.3	1	UNK0	0.000	
36	 C14	4.630	8.340	20.820	C.2	1	UNK0	0.000	
37	  N4	4.330	7.070	20.290	N.pl3	1	UNK0	0.000	
38	  O2	4.910	9.280	20.060	O.2	1	UNK0	0.000	
39	 C15	-0.580	9.640	27.540	C.2	1	UNK0	0.000	
40	  N5	0.450	8.700	27.750	N.pl3	1	UNK0	0.000	
41	  O3	-1.400	9.870	28.430	O.2	1	UNK0	0.000	
42	 C16	0.570	7.990	28.980	C.3	1	UNK0	0.000	
43	 C17	2.070	7.900	29.350	C.3	1	UNK0	0.000	
@<TRIPOS>BOND
1 16 17 1
2 16 20 2
3 16 26 1
4 17 18 2
5 18 19 1
6 18 25 1
7 19 22 2
8 20 21 1
9 20 22 1
10 12 21 1
11 21 24 2
12 22 23 1
13 23 24 1
14 24 39 1
15 11 25 1
16 13 25 1
17 26 29 2
18 26 30 1
19 27 28 2
20 27 31 1
21 27 32 1
22 9 28 1
23 28 29 1
24 29 33 1
25 1 30 1
26 30 31 2
27 31 34 1
28 34 35 1
29 2 35 1
30 15 35 1
31 35 36 1
32 36 37 1
33 36 38 2
34 5 37 1
35 6 37 1
36 39 40 1
37 39 41 2
38 3 40 1
39 40 42 1
40 4 42 1
41 14 42 1
42 42 43 1
43 7 43 1
44 8 43 1
45 10 43 1
@<TRIPOS>SUBSTRUCTURE
1	UNK0	1	GROUP	1 ****	UNK
