# created with PyMOL 2.5.0
@<TRIPOS>MOLECULE
BDB33240
43 45 1                 
SMALL
USER_CHARGES
@<TRIPOS>ATOM
1	 H05	3.280	10.790	21.680	 H	1	UNK0	0.000	
2	 H06	4.510	9.000	21.820	 H	1	UNK0	0.000	
3	 H10	1.660	9.050	27.440	 H	1	UNK0	0.000	
4	 H11	0.340	7.240	28.640	 H	1	UNK0	0.000	
5	 H08	4.040	7.850	18.400	 H	1	UNK0	0.000	
6	 H09	3.780	7.470	20.060	 H	1	UNK0	0.000	
7	 H13	2.780	7.560	29.150	 H	1	UNK0	0.000	
8	 H14	2.350	8.770	30.370	 H	1	UNK0	0.000	
9	 H04	5.890	13.780	24.800	 H	1	UNK0	0.000	
10	 H15	1.860	7.080	30.590	 H	1	UNK0	0.000	
11	 H02	-0.360	13.970	20.760	 H	1	UNK0	0.000	
12	 H01	2.230	10.880	26.130	 H	1	UNK0	0.000	
13	 H03	-1.790	13.120	21.170	 H	1	UNK0	0.000	
14	 H12	-0.070	8.490	29.820	 H	1	UNK0	0.000	
15	 H07	6.100	8.430	21.390	 H	1	UNK0	0.000	
16	  C1	1.670	12.240	23.290	C.2	1	UNK0	0.000	
17	  N1	1.080	12.730	22.160	N.2	1	UNK0	0.000	
18	  C2	-0.250	12.630	22.060	C.2	1	UNK0	0.000	
19	  N2	-1.120	12.180	22.950	N.2	1	UNK0	0.000	
20	  C3	0.900	11.690	24.330	C.2	1	UNK0	0.000	
21	  C4	1.230	11.000	25.730	C.2	1	UNK0	0.000	
22	  C5	-0.560	11.710	24.070	C.2	1	UNK0	0.000	
23	  S1	-1.530	10.940	25.450	S.3	1	UNK0	0.000	
24	  C6	0.010	10.570	26.440	C.2	1	UNK0	0.000	
25	  N3	-0.800	13.080	20.920	N.pl3	1	UNK0	0.000	
26	  C7	3.120	12.210	23.330	C.2	1	UNK0	0.000	
27	  C8	6.040	12.160	23.330	C.2	1	UNK0	0.000	
28	  C9	5.340	13.070	24.210	C.2	1	UNK0	0.000	
29	 C10	3.890	13.110	24.190	C.2	1	UNK0	0.000	
30	 C11	3.850	11.320	22.430	C.2	1	UNK0	0.000	
31	 C12	5.310	11.250	22.450	C.2	1	UNK0	0.000	
32	 Cl1	7.770	12.240	23.330	Cl	1	UNK0	0.000	
33	 Cl2	3.130	14.390	25.070	Cl	1	UNK0	0.000	
34	  O1	6.020	10.470	21.530	O.3	1	UNK0	0.000	
35	 C13	5.370	9.220	21.190	C.3	1	UNK0	0.000	
36	 C14	4.990	9.110	19.710	C.2	1	UNK0	0.000	
37	  N4	4.330	7.970	19.360	N.pl3	1	UNK0	0.000	
38	  O2	5.270	9.900	18.820	O.2	1	UNK0	0.000	
39	 C15	-0.180	9.900	27.700	C.2	1	UNK0	0.000	
40	  N5	0.880	9.140	28.080	N.pl3	1	UNK0	0.000	
41	  O3	-1.230	9.840	28.320	O.2	1	UNK0	0.000	
42	 C16	0.700	8.160	29.120	C.3	1	UNK0	0.000	
43	 C17	2.000	7.870	29.850	C.3	1	UNK0	0.000	
@<TRIPOS>BOND
1 16 17 1
2 16 20 2
3 16 26 1
4 17 18 2
5 18 19 1
6 18 25 1
7 19 22 2
8 20 21 1
9 20 22 1
10 12 21 1
11 21 24 2
12 22 23 1
13 23 24 1
14 24 39 1
15 11 25 1
16 13 25 1
17 26 29 2
18 26 30 1
19 27 28 2
20 27 31 1
21 27 32 1
22 9 28 1
23 28 29 1
24 29 33 1
25 1 30 1
26 30 31 2
27 31 34 1
28 34 35 1
29 2 35 1
30 15 35 1
31 35 36 1
32 36 37 1
33 36 38 2
34 5 37 1
35 6 37 1
36 39 40 1
37 39 41 2
38 3 40 1
39 40 42 1
40 4 42 1
41 14 42 1
42 42 43 1
43 7 43 1
44 8 43 1
45 10 43 1
@<TRIPOS>SUBSTRUCTURE
1	UNK0	1	GROUP	1 ****	UNK
