# created with PyMOL 2.5.0
@<TRIPOS>MOLECULE
BDB33240
43 45 1                 
SMALL
USER_CHARGES
@<TRIPOS>ATOM
1	 H05	1.570	8.640	24.610	 H	1	UNK0	0.000	
2	 H06	2.370	6.920	24.300	 H	1	UNK0	0.000	
3	 H10	1.520	8.480	29.230	 H	1	UNK0	0.000	
4	 H11	0.270	6.850	31.270	 H	1	UNK0	0.000	
5	 H08	2.030	5.350	21.000	 H	1	UNK0	0.000	
6	 H09	1.650	5.090	22.670	 H	1	UNK0	0.000	
7	 H13	2.600	6.380	30.440	 H	1	UNK0	0.000	
8	 H14	3.120	7.960	31.040	 H	1	UNK0	0.000	
9	 H04	4.690	12.540	23.740	 H	1	UNK0	0.000	
10	 H15	2.590	6.710	32.190	 H	1	UNK0	0.000	
11	 H02	-3.460	12.140	23.780	 H	1	UNK0	0.000	
12	 H01	1.430	9.270	27.200	 H	1	UNK0	0.000	
13	 H03	-2.280	12.030	22.590	 H	1	UNK0	0.000	
14	 H12	0.810	8.420	31.870	 H	1	UNK0	0.000	
15	 H07	3.790	5.930	24.140	 H	1	UNK0	0.000	
16	  C1	0.320	11.020	24.780	C.2	1	UNK0	0.000	
17	  N1	-0.500	11.690	23.910	N.2	1	UNK0	0.000	
18	  C2	-1.730	12.020	24.340	C.2	1	UNK0	0.000	
19	  N2	-2.300	11.760	25.520	N.2	1	UNK0	0.000	
20	  C3	-0.160	10.600	26.040	C.2	1	UNK0	0.000	
21	  C4	0.450	9.730	27.230	C.2	1	UNK0	0.000	
22	  C5	-1.520	11.050	26.350	C.2	1	UNK0	0.000	
23	  S1	-2.080	10.530	28.030	S.3	1	UNK0	0.000	
24	  C6	-0.510	9.580	28.340	C.2	1	UNK0	0.000	
25	  N3	-2.580	12.520	23.420	N.pl3	1	UNK0	0.000	
26	  C7	1.700	10.810	24.390	C.2	1	UNK0	0.000	
27	  C8	4.540	10.350	23.820	C.2	1	UNK0	0.000	
28	  C9	4.010	11.690	23.860	C.2	1	UNK0	0.000	
29	 C10	2.620	11.930	24.140	C.2	1	UNK0	0.000	
30	 C11	2.250	9.450	24.370	C.2	1	UNK0	0.000	
31	 C12	3.650	9.200	24.040	C.2	1	UNK0	0.000	
32	 Cl1	6.240	10.180	23.560	Cl	1	UNK0	0.000	
33	 Cl2	2.140	13.580	24.350	Cl	1	UNK0	0.000	
34	  O1	4.230	7.920	24.040	O.3	1	UNK0	0.000	
35	 C13	3.310	6.830	23.760	C.3	1	UNK0	0.000	
36	 C14	3.060	6.600	22.270	C.2	1	UNK0	0.000	
37	  N4	2.260	5.550	21.960	N.pl3	1	UNK0	0.000	
38	  O2	3.570	7.230	21.350	O.2	1	UNK0	0.000	
39	 C15	-0.450	8.830	29.560	C.2	1	UNK0	0.000	
40	  N5	0.740	8.230	29.810	N.pl3	1	UNK0	0.000	
41	  O3	-1.390	8.770	30.350	O.2	1	UNK0	0.000	
42	 C16	0.990	7.660	31.110	C.3	1	UNK0	0.000	
43	 C17	2.410	7.150	31.200	C.3	1	UNK0	0.000	
@<TRIPOS>BOND
1 16 17 1
2 16 20 2
3 16 26 1
4 17 18 2
5 18 19 1
6 18 25 1
7 19 22 2
8 20 21 1
9 20 22 1
10 12 21 1
11 21 24 2
12 22 23 1
13 23 24 1
14 24 39 1
15 11 25 1
16 13 25 1
17 26 29 2
18 26 30 1
19 27 28 2
20 27 31 1
21 27 32 1
22 9 28 1
23 28 29 1
24 29 33 1
25 1 30 1
26 30 31 2
27 31 34 1
28 34 35 1
29 2 35 1
30 15 35 1
31 35 36 1
32 36 37 1
33 36 38 2
34 5 37 1
35 6 37 1
36 39 40 1
37 39 41 2
38 3 40 1
39 40 42 1
40 4 42 1
41 14 42 1
42 42 43 1
43 7 43 1
44 8 43 1
45 10 43 1
@<TRIPOS>SUBSTRUCTURE
1	UNK0	1	GROUP	1 ****	UNK
