# created with PyMOL 2.5.0
@<TRIPOS>MOLECULE
BDB33240
43 45 1                 
SMALL
USER_CHARGES
@<TRIPOS>ATOM
1	 H05	2.840	10.040	23.700	 H	1	UNK0	0.000	
2	 H06	3.630	8.130	24.100	 H	1	UNK0	0.000	
3	 H10	2.270	10.030	29.300	 H	1	UNK0	0.000	
4	 H11	0.490	8.550	31.180	 H	1	UNK0	0.000	
5	 H08	2.450	7.490	20.760	 H	1	UNK0	0.000	
6	 H09	2.440	6.720	22.320	 H	1	UNK0	0.000	
7	 H13	3.550	8.790	31.050	 H	1	UNK0	0.000	
8	 H14	2.630	7.790	32.200	 H	1	UNK0	0.000	
9	 H04	6.350	13.380	25.190	 H	1	UNK0	0.000	
10	 H15	2.610	7.410	30.470	 H	1	UNK0	0.000	
11	 H02	-0.570	13.240	21.850	 H	1	UNK0	0.000	
12	 H01	2.500	10.760	27.260	 H	1	UNK0	0.000	
13	 H03	-1.810	13.540	22.930	 H	1	UNK0	0.000	
14	 H12	1.450	9.930	31.750	 H	1	UNK0	0.000	
15	 H07	4.920	7.090	23.520	 H	1	UNK0	0.000	
16	  C1	1.790	12.330	24.600	C.2	1	UNK0	0.000	
17	  N1	1.130	12.960	23.560	N.2	1	UNK0	0.000	
18	  C2	-0.170	13.210	23.720	C.2	1	UNK0	0.000	
19	  N2	-0.970	12.870	24.730	N.2	1	UNK0	0.000	
20	  C3	1.100	11.910	25.730	C.2	1	UNK0	0.000	
21	  C4	1.510	11.110	27.050	C.2	1	UNK0	0.000	
22	  C5	-0.340	12.230	25.730	C.2	1	UNK0	0.000	
23	  S1	-1.210	11.630	27.240	S.3	1	UNK0	0.000	
24	  C6	0.350	10.880	27.940	C.2	1	UNK0	0.000	
25	  N3	-0.850	13.760	22.680	N.pl3	1	UNK0	0.000	
26	  C7	3.190	12.070	24.440	C.2	1	UNK0	0.000	
27	  C8	6.020	11.310	24.530	C.2	1	UNK0	0.000	
28	  C9	5.610	12.660	24.870	C.2	1	UNK0	0.000	
29	 C10	4.220	13.030	24.810	C.2	1	UNK0	0.000	
30	 C11	3.610	10.720	24.040	C.2	1	UNK0	0.000	
31	 C12	5.020	10.330	24.090	C.2	1	UNK0	0.000	
32	 Cl1	7.700	10.930	24.710	Cl	1	UNK0	0.000	
33	 Cl2	3.820	14.660	25.280	Cl	1	UNK0	0.000	
34	  O1	5.500	9.050	23.720	O.3	1	UNK0	0.000	
35	 C13	4.460	8.070	23.390	C.3	1	UNK0	0.000	
36	 C14	3.980	8.160	21.960	C.2	1	UNK0	0.000	
37	  N4	2.900	7.370	21.650	N.pl3	1	UNK0	0.000	
38	  O2	4.440	8.870	21.090	O.2	1	UNK0	0.000	
39	 C15	0.240	10.160	29.190	C.2	1	UNK0	0.000	
40	  N5	1.400	9.710	29.700	N.pl3	1	UNK0	0.000	
41	  O3	-0.830	9.960	29.760	O.2	1	UNK0	0.000	
42	 C16	1.420	9.110	31.020	C.3	1	UNK0	0.000	
43	 C17	2.620	8.220	31.200	C.3	1	UNK0	0.000	
@<TRIPOS>BOND
1 16 17 1
2 16 20 2
3 16 26 1
4 17 18 2
5 18 19 1
6 18 25 1
7 19 22 2
8 20 21 1
9 20 22 1
10 12 21 1
11 21 24 2
12 22 23 1
13 23 24 1
14 24 39 1
15 11 25 1
16 13 25 1
17 26 29 2
18 26 30 1
19 27 28 2
20 27 31 1
21 27 32 1
22 9 28 1
23 28 29 1
24 29 33 1
25 1 30 1
26 30 31 2
27 31 34 1
28 34 35 1
29 2 35 1
30 15 35 1
31 35 36 1
32 36 37 1
33 36 38 2
34 5 37 1
35 6 37 1
36 39 40 1
37 39 41 2
38 3 40 1
39 40 42 1
40 4 42 1
41 14 42 1
42 42 43 1
43 7 43 1
44 8 43 1
45 10 43 1
@<TRIPOS>SUBSTRUCTURE
1	UNK0	1	GROUP	1 ****	UNK
