# created with PyMOL 2.5.0
@<TRIPOS>MOLECULE
BDB33240
43 45 1                 
SMALL
USER_CHARGES
@<TRIPOS>ATOM
1	 H05	3.000	10.580	23.850	 H	1	UNK0	0.000	
2	 H06	3.960	8.810	23.650	 H	1	UNK0	0.000	
3	 H10	2.260	9.790	29.290	 H	1	UNK0	0.000	
4	 H11	0.920	7.350	30.330	 H	1	UNK0	0.000	
5	 H08	2.740	8.540	20.260	 H	1	UNK0	0.000	
6	 H09	2.820	7.660	21.730	 H	1	UNK0	0.000	
7	 H13	3.470	8.800	31.240	 H	1	UNK0	0.000	
8	 H14	2.830	7.300	31.940	 H	1	UNK0	0.000	
9	 H04	6.290	14.200	25.180	 H	1	UNK0	0.000	
10	 H15	3.420	7.320	30.270	 H	1	UNK0	0.000	
11	 H02	-0.450	14.500	22.730	 H	1	UNK0	0.000	
12	 H01	2.560	10.320	26.840	 H	1	UNK0	0.000	
13	 H03	-1.850	14.370	23.680	 H	1	UNK0	0.000	
14	 H12	0.970	8.830	31.310	 H	1	UNK0	0.000	
15	 H07	5.300	8.000	22.880	 H	1	UNK0	0.000	
16	  C1	1.790	12.740	24.890	C.2	1	UNK0	0.000	
17	  N1	1.100	13.660	24.160	N.2	1	UNK0	0.000	
18	  C2	-0.190	13.870	24.460	C.2	1	UNK0	0.000	
19	  N2	-0.920	13.300	25.420	N.2	1	UNK0	0.000	
20	  C3	1.140	11.960	25.870	C.2	1	UNK0	0.000	
21	  C4	1.580	10.770	26.830	C.2	1	UNK0	0.000	
22	  C5	-0.270	12.330	26.090	C.2	1	UNK0	0.000	
23	  S1	-1.070	11.330	27.420	S.3	1	UNK0	0.000	
24	  C6	0.470	10.330	27.700	C.2	1	UNK0	0.000	
25	  N3	-0.860	14.690	23.630	N.pl3	1	UNK0	0.000	
26	  C7	3.220	12.590	24.660	C.2	1	UNK0	0.000	
27	  C8	6.100	12.170	24.340	C.2	1	UNK0	0.000	
28	  C9	5.600	13.410	24.890	C.2	1	UNK0	0.000	
29	 C10	4.180	13.640	25.010	C.2	1	UNK0	0.000	
30	 C11	3.740	11.320	24.140	C.2	1	UNK0	0.000	
31	 C12	5.180	11.110	23.950	C.2	1	UNK0	0.000	
32	 Cl1	7.820	12.030	24.190	Cl	1	UNK0	0.000	
33	 Cl2	3.700	15.160	25.680	Cl	1	UNK0	0.000	
34	  O1	5.730	9.930	23.420	O.3	1	UNK0	0.000	
35	 C13	4.770	8.960	22.930	C.3	1	UNK0	0.000	
36	 C14	4.210	9.220	21.530	C.2	1	UNK0	0.000	
37	  N4	3.200	8.390	21.150	N.pl3	1	UNK0	0.000	
38	  O2	4.660	10.050	20.740	O.2	1	UNK0	0.000	
39	 C15	0.410	9.280	28.680	C.2	1	UNK0	0.000	
40	  N5	1.570	9.060	29.350	N.pl3	1	UNK0	0.000	
41	  O3	-0.600	8.650	28.950	O.2	1	UNK0	0.000	
42	 C16	1.500	8.250	30.540	C.3	1	UNK0	0.000	
43	 C17	2.890	7.900	31.030	C.3	1	UNK0	0.000	
@<TRIPOS>BOND
1 16 17 1
2 16 20 2
3 16 26 1
4 17 18 2
5 18 19 1
6 18 25 1
7 19 22 2
8 20 21 1
9 20 22 1
10 12 21 1
11 21 24 2
12 22 23 1
13 23 24 1
14 24 39 1
15 11 25 1
16 13 25 1
17 26 29 2
18 26 30 1
19 27 28 2
20 27 31 1
21 27 32 1
22 9 28 1
23 28 29 1
24 29 33 1
25 1 30 1
26 30 31 2
27 31 34 1
28 34 35 1
29 2 35 1
30 15 35 1
31 35 36 1
32 36 37 1
33 36 38 2
34 5 37 1
35 6 37 1
36 39 40 1
37 39 41 2
38 3 40 1
39 40 42 1
40 4 42 1
41 14 42 1
42 42 43 1
43 7 43 1
44 8 43 1
45 10 43 1
@<TRIPOS>SUBSTRUCTURE
1	UNK0	1	GROUP	1 ****	UNK
