# created with PyMOL 2.5.0
@<TRIPOS>MOLECULE
BDB33240
43 45 1                 
SMALL
USER_CHARGES
@<TRIPOS>ATOM
1	 H05	3.170	10.300	22.170	 H	1	UNK0	0.000	
2	 H06	4.110	8.500	21.830	 H	1	UNK0	0.000	
3	 H10	3.190	9.680	28.840	 H	1	UNK0	0.000	
4	 H11	2.060	7.440	30.370	 H	1	UNK0	0.000	
5	 H08	3.550	6.880	18.570	 H	1	UNK0	0.000	
6	 H09	3.550	6.510	20.260	 H	1	UNK0	0.000	
7	 H13	4.540	9.180	30.860	 H	1	UNK0	0.000	
8	 H14	4.110	7.710	31.760	 H	1	UNK0	0.000	
9	 H04	6.770	13.130	24.290	 H	1	UNK0	0.000	
10	 H15	4.550	7.610	30.040	 H	1	UNK0	0.000	
11	 H02	-0.000	12.580	21.500	 H	1	UNK0	0.000	
12	 H01	3.280	10.300	26.680	 H	1	UNK0	0.000	
13	 H03	-1.480	12.440	22.330	 H	1	UNK0	0.000	
14	 H12	2.070	9.010	31.170	 H	1	UNK0	0.000	
15	 H07	5.660	7.770	21.400	 H	1	UNK0	0.000	
16	  C1	2.220	11.850	24.120	C.2	1	UNK0	0.000	
17	  N1	1.450	12.430	23.160	N.2	1	UNK0	0.000	
18	  C2	0.130	12.440	23.330	C.2	1	UNK0	0.000	
19	  N2	-0.580	11.890	24.320	N.2	1	UNK0	0.000	
20	  C3	1.650	11.260	25.250	C.2	1	UNK0	0.000	
21	  C4	2.220	10.470	26.510	C.2	1	UNK0	0.000	
22	  C5	0.170	11.320	25.280	C.2	1	UNK0	0.000	
23	  S1	-0.540	10.450	26.760	S.3	1	UNK0	0.000	
24	  C6	1.150	9.980	27.390	C.2	1	UNK0	0.000	
25	  N3	-0.570	12.900	22.280	N.pl3	1	UNK0	0.000	
26	  C7	3.620	11.680	23.810	C.2	1	UNK0	0.000	
27	  C8	6.370	11.530	22.830	C.2	1	UNK0	0.000	
28	  C9	6.020	12.450	23.890	C.2	1	UNK0	0.000	
29	 C10	4.680	12.490	24.420	C.2	1	UNK0	0.000	
30	 C11	3.980	10.760	22.730	C.2	1	UNK0	0.000	
31	 C12	5.360	10.610	22.290	C.2	1	UNK0	0.000	
32	 Cl1	7.990	11.580	22.210	Cl	1	UNK0	0.000	
33	 Cl2	4.360	13.550	25.750	Cl	1	UNK0	0.000	
34	  O1	5.670	9.820	21.180	O.3	1	UNK0	0.000	
35	 C13	4.950	8.560	21.140	C.3	1	UNK0	0.000	
36	 C14	4.430	8.310	19.720	C.2	1	UNK0	0.000	
37	  N4	3.970	7.060	19.480	N.pl3	1	UNK0	0.000	
38	  O2	4.480	9.110	18.800	O.2	1	UNK0	0.000	
39	 C15	1.220	9.190	28.600	C.2	1	UNK0	0.000	
40	  N5	2.460	9.060	29.150	N.pl3	1	UNK0	0.000	
41	  O3	0.260	8.660	29.140	O.2	1	UNK0	0.000	
42	 C16	2.580	8.400	30.420	C.3	1	UNK0	0.000	
43	 C17	4.030	8.210	30.790	C.3	1	UNK0	0.000	
@<TRIPOS>BOND
1 16 17 1
2 16 20 2
3 16 26 1
4 17 18 2
5 18 19 1
6 18 25 1
7 19 22 2
8 20 21 1
9 20 22 1
10 12 21 1
11 21 24 2
12 22 23 1
13 23 24 1
14 24 39 1
15 11 25 1
16 13 25 1
17 26 29 2
18 26 30 1
19 27 28 2
20 27 31 1
21 27 32 1
22 9 28 1
23 28 29 1
24 29 33 1
25 1 30 1
26 30 31 2
27 31 34 1
28 34 35 1
29 2 35 1
30 15 35 1
31 35 36 1
32 36 37 1
33 36 38 2
34 5 37 1
35 6 37 1
36 39 40 1
37 39 41 2
38 3 40 1
39 40 42 1
40 4 42 1
41 14 42 1
42 42 43 1
43 7 43 1
44 8 43 1
45 10 43 1
@<TRIPOS>SUBSTRUCTURE
1	UNK0	1	GROUP	1 ****	UNK
