# created with PyMOL 2.5.0
@<TRIPOS>MOLECULE
BDB33240
43 45 1                 
SMALL
USER_CHARGES
@<TRIPOS>ATOM
1	 H05	4.210	10.350	24.690	 H	1	UNK0	0.000	
2	 H06	7.550	8.860	23.320	 H	1	UNK0	0.000	
3	 H10	2.300	8.640	28.040	 H	1	UNK0	0.000	
4	 H11	0.440	8.050	30.240	 H	1	UNK0	0.000	
5	 H08	4.490	9.730	21.440	 H	1	UNK0	0.000	
6	 H09	4.950	8.670	22.730	 H	1	UNK0	0.000	
7	 H13	0.630	5.570	29.940	 H	1	UNK0	0.000	
8	 H14	-0.200	6.310	28.560	 H	1	UNK0	0.000	
9	 H04	6.690	14.680	25.520	 H	1	UNK0	0.000	
10	 H15	1.490	5.830	28.410	 H	1	UNK0	0.000	
11	 H02	1.060	14.640	22.090	 H	1	UNK0	0.000	
12	 H01	2.800	10.460	26.930	 H	1	UNK0	0.000	
13	 H03	-0.460	13.860	22.010	 H	1	UNK0	0.000	
14	 H12	2.150	7.550	30.100	 H	1	UNK0	0.000	
15	 H07	8.130	10.510	23.320	 H	1	UNK0	0.000	
16	  C1	2.570	12.490	24.510	C.2	1	UNK0	0.000	
17	  N1	2.140	13.220	23.440	N.2	1	UNK0	0.000	
18	  C2	0.880	13.060	23.050	C.2	1	UNK0	0.000	
19	  N2	-0.100	12.350	23.600	N.2	1	UNK0	0.000	
20	  C3	1.700	11.620	25.180	C.2	1	UNK0	0.000	
21	  C4	1.870	10.620	26.390	C.2	1	UNK0	0.000	
22	  C5	0.310	11.620	24.670	C.2	1	UNK0	0.000	
23	  S1	-0.800	10.500	25.650	S.3	1	UNK0	0.000	
24	  C6	0.600	9.960	26.770	C.2	1	UNK0	0.000	
25	  N3	0.550	13.790	21.950	N.pl3	1	UNK0	0.000	
26	  C7	3.990	12.540	24.860	C.2	1	UNK0	0.000	
27	  C8	6.900	12.510	25.220	C.2	1	UNK0	0.000	
28	  C9	6.170	13.760	25.290	C.2	1	UNK0	0.000	
29	 C10	4.730	13.780	25.100	C.2	1	UNK0	0.000	
30	 C11	4.730	11.280	24.890	C.2	1	UNK0	0.000	
31	 C12	6.170	11.270	24.990	C.2	1	UNK0	0.000	
32	 Cl1	8.620	12.550	25.460	Cl	1	UNK0	0.000	
33	 Cl2	3.940	15.290	25.370	Cl	1	UNK0	0.000	
34	  O1	6.770	10.030	24.820	O.3	1	UNK0	0.000	
35	 C13	7.230	9.900	23.450	C.3	1	UNK0	0.000	
36	 C14	6.290	10.230	22.290	C.2	1	UNK0	0.000	
37	  N4	5.150	9.490	22.180	N.pl3	1	UNK0	0.000	
38	  O2	6.500	11.140	21.510	O.2	1	UNK0	0.000	
39	 C15	0.300	9.060	27.840	C.2	1	UNK0	0.000	
40	  N5	1.400	8.520	28.460	N.pl3	1	UNK0	0.000	
41	  O3	-0.800	8.770	28.250	O.2	1	UNK0	0.000	
42	 C16	1.200	7.630	29.570	C.3	1	UNK0	0.000	
43	 C17	0.750	6.250	29.090	C.3	1	UNK0	0.000	
@<TRIPOS>BOND
1 16 17 1
2 16 20 2
3 16 26 1
4 17 18 2
5 18 19 1
6 18 25 1
7 19 22 2
8 20 21 1
9 20 22 1
10 12 21 1
11 21 24 2
12 22 23 1
13 23 24 1
14 24 39 1
15 11 25 1
16 13 25 1
17 26 29 2
18 26 30 1
19 27 28 2
20 27 31 1
21 27 32 1
22 9 28 1
23 28 29 1
24 29 33 1
25 1 30 1
26 30 31 2
27 31 34 1
28 34 35 1
29 2 35 1
30 15 35 1
31 35 36 1
32 36 37 1
33 36 38 2
34 5 37 1
35 6 37 1
36 39 40 1
37 39 41 2
38 3 40 1
39 40 42 1
40 4 42 1
41 14 42 1
42 42 43 1
43 7 43 1
44 8 43 1
45 10 43 1
@<TRIPOS>SUBSTRUCTURE
1	UNK0	1	GROUP	1 ****	UNK
