# created with PyMOL 2.5.0
@<TRIPOS>MOLECULE
BDB33240
43 45 1                 
SMALL
USER_CHARGES
@<TRIPOS>ATOM
1	 H05	2.830	10.010	22.500	 H	1	UNK0	0.000	
2	 H06	3.850	8.380	22.640	 H	1	UNK0	0.000	
3	 H10	1.170	8.600	27.030	 H	1	UNK0	0.000	
4	 H11	0.080	7.100	28.930	 H	1	UNK0	0.000	
5	 H08	4.000	7.070	19.210	 H	1	UNK0	0.000	
6	 H09	3.890	6.400	20.770	 H	1	UNK0	0.000	
7	 H13	2.680	8.670	29.300	 H	1	UNK0	0.000	
8	 H14	2.190	7.310	30.330	 H	1	UNK0	0.000	
9	 H04	5.540	13.790	24.490	 H	1	UNK0	0.000	
10	 H15	2.520	7.060	28.600	 H	1	UNK0	0.000	
11	 H02	-0.690	13.770	20.610	 H	1	UNK0	0.000	
12	 H01	1.750	10.590	26.030	 H	1	UNK0	0.000	
13	 H03	-2.050	12.780	20.950	 H	1	UNK0	0.000	
14	 H12	0.180	8.620	29.820	 H	1	UNK0	0.000	
15	 H07	5.390	7.530	22.500	 H	1	UNK0	0.000	
16	  C1	1.280	12.050	23.310	C.2	1	UNK0	0.000	
17	  N1	0.760	12.570	22.180	N.2	1	UNK0	0.000	
18	  C2	-0.570	12.490	22.020	C.2	1	UNK0	0.000	
19	  N2	-1.500	12.020	22.850	N.2	1	UNK0	0.000	
20	  C3	0.460	11.460	24.270	C.2	1	UNK0	0.000	
21	  C4	0.760	10.730	25.630	C.2	1	UNK0	0.000	
22	  C5	-0.990	11.500	23.980	C.2	1	UNK0	0.000	
23	  S1	-1.980	10.690	25.330	S.3	1	UNK0	0.000	
24	  C6	-0.460	10.270	26.300	C.2	1	UNK0	0.000	
25	  N3	-1.040	12.840	20.810	N.pl3	1	UNK0	0.000	
26	  C7	2.730	11.960	23.450	C.2	1	UNK0	0.000	
27	  C8	5.650	11.800	23.570	C.2	1	UNK0	0.000	
28	  C9	4.970	12.950	24.100	C.2	1	UNK0	0.000	
29	 C10	3.530	13.020	24.070	C.2	1	UNK0	0.000	
30	 C11	3.430	10.780	22.970	C.2	1	UNK0	0.000	
31	 C12	4.880	10.670	23.040	C.2	1	UNK0	0.000	
32	 Cl1	7.390	11.810	23.600	Cl	1	UNK0	0.000	
33	 Cl2	2.830	14.470	24.690	Cl	1	UNK0	0.000	
34	  O1	5.610	9.570	22.570	O.3	1	UNK0	0.000	
35	 C13	4.840	8.410	22.170	C.3	1	UNK0	0.000	
36	 C14	4.680	8.320	20.650	C.2	1	UNK0	0.000	
37	  N4	4.310	7.100	20.170	N.pl3	1	UNK0	0.000	
38	  O2	4.860	9.240	19.860	O.2	1	UNK0	0.000	
39	 C15	-0.580	9.520	27.520	C.2	1	UNK0	0.000	
40	  N5	0.520	8.750	27.780	N.pl3	1	UNK0	0.000	
41	  O3	-1.530	9.540	28.280	O.2	1	UNK0	0.000	
42	 C16	0.640	8.030	29.020	C.3	1	UNK0	0.000	
43	 C17	2.090	7.750	29.330	C.3	1	UNK0	0.000	
@<TRIPOS>BOND
1 16 17 1
2 16 20 2
3 16 26 1
4 17 18 2
5 18 19 1
6 18 25 1
7 19 22 2
8 20 21 1
9 20 22 1
10 12 21 1
11 21 24 2
12 22 23 1
13 23 24 1
14 24 39 1
15 11 25 1
16 13 25 1
17 26 29 2
18 26 30 1
19 27 28 2
20 27 31 1
21 27 32 1
22 9 28 1
23 28 29 1
24 29 33 1
25 1 30 1
26 30 31 2
27 31 34 1
28 34 35 1
29 2 35 1
30 15 35 1
31 35 36 1
32 36 37 1
33 36 38 2
34 5 37 1
35 6 37 1
36 39 40 1
37 39 41 2
38 3 40 1
39 40 42 1
40 4 42 1
41 14 42 1
42 42 43 1
43 7 43 1
44 8 43 1
45 10 43 1
@<TRIPOS>SUBSTRUCTURE
1	UNK0	1	GROUP	1 ****	UNK
