# created with PyMOL 2.5.0
@<TRIPOS>MOLECULE
BDB33240
43 45 1                 
SMALL
USER_CHARGES
@<TRIPOS>ATOM
1	 H05	2.960	9.170	24.190	 H	1	UNK0	0.000	
2	 H06	4.200	7.690	24.340	 H	1	UNK0	0.000	
3	 H10	4.630	8.440	28.650	 H	1	UNK0	0.000	
4	 H11	4.280	6.440	30.860	 H	1	UNK0	0.000	
5	 H08	3.060	6.610	21.100	 H	1	UNK0	0.000	
6	 H09	2.810	6.550	22.790	 H	1	UNK0	0.000	
7	 H13	6.630	6.880	28.940	 H	1	UNK0	0.000	
8	 H14	6.520	5.630	30.190	 H	1	UNK0	0.000	
9	 H04	5.320	13.650	24.170	 H	1	UNK0	0.000	
10	 H15	5.440	5.580	28.790	 H	1	UNK0	0.000	
11	 H02	-1.620	12.260	24.190	 H	1	UNK0	0.000	
12	 H01	3.730	9.500	27.030	 H	1	UNK0	0.000	
13	 H03	-2.520	11.870	25.590	 H	1	UNK0	0.000	
14	 H12	5.460	7.770	30.930	 H	1	UNK0	0.000	
15	 H07	5.710	6.980	23.890	 H	1	UNK0	0.000	
16	  C1	1.540	11.080	25.370	C.2	1	UNK0	0.000	
17	  N1	0.370	11.480	24.830	N.2	1	UNK0	0.000	
18	  C2	-0.750	11.230	25.510	C.2	1	UNK0	0.000	
19	  N2	-0.890	10.680	26.720	N.2	1	UNK0	0.000	
20	  C3	1.570	10.330	26.560	C.2	1	UNK0	0.000	
21	  C4	2.700	9.550	27.350	C.2	1	UNK0	0.000	
22	  C5	0.250	10.200	27.230	C.2	1	UNK0	0.000	
23	  S1	0.360	9.210	28.800	S.3	1	UNK0	0.000	
24	  C6	2.180	8.890	28.570	C.2	1	UNK0	0.000	
25	  N3	-1.880	11.550	24.860	N.pl3	1	UNK0	0.000	
26	  C7	2.770	11.270	24.610	C.2	1	UNK0	0.000	
27	  C8	5.620	11.470	23.980	C.2	1	UNK0	0.000	
28	  C9	4.840	12.670	24.210	C.2	1	UNK0	0.000	
29	 C10	3.420	12.580	24.490	C.2	1	UNK0	0.000	
30	 C11	3.520	10.090	24.220	C.2	1	UNK0	0.000	
31	 C12	4.960	10.160	23.970	C.2	1	UNK0	0.000	
32	 Cl1	7.320	11.660	23.750	Cl	1	UNK0	0.000	
33	 Cl2	2.550	14.060	24.720	Cl	1	UNK0	0.000	
34	  O1	5.760	9.020	23.770	O.3	1	UNK0	0.000	
35	 C13	5.020	7.790	23.630	C.3	1	UNK0	0.000	
36	 C14	4.590	7.520	22.190	C.2	1	UNK0	0.000	
37	  N4	3.420	6.830	22.040	N.pl3	1	UNK0	0.000	
38	  O2	5.280	7.790	21.220	O.2	1	UNK0	0.000	
39	 C15	2.830	8.060	29.550	C.2	1	UNK0	0.000	
40	  N5	4.170	7.880	29.350	N.pl3	1	UNK0	0.000	
41	  O3	2.270	7.530	30.490	O.2	1	UNK0	0.000	
42	 C16	4.940	7.080	30.260	C.3	1	UNK0	0.000	
43	 C17	5.940	6.240	29.500	C.3	1	UNK0	0.000	
@<TRIPOS>BOND
1 16 17 1
2 16 20 2
3 16 26 1
4 17 18 2
5 18 19 1
6 18 25 1
7 19 22 2
8 20 21 1
9 20 22 1
10 12 21 1
11 21 24 2
12 22 23 1
13 23 24 1
14 24 39 1
15 11 25 1
16 13 25 1
17 26 29 2
18 26 30 1
19 27 28 2
20 27 31 1
21 27 32 1
22 9 28 1
23 28 29 1
24 29 33 1
25 1 30 1
26 30 31 2
27 31 34 1
28 34 35 1
29 2 35 1
30 15 35 1
31 35 36 1
32 36 37 1
33 36 38 2
34 5 37 1
35 6 37 1
36 39 40 1
37 39 41 2
38 3 40 1
39 40 42 1
40 4 42 1
41 14 42 1
42 42 43 1
43 7 43 1
44 8 43 1
45 10 43 1
@<TRIPOS>SUBSTRUCTURE
1	UNK0	1	GROUP	1 ****	UNK
