# created with PyMOL 2.5.0
@<TRIPOS>MOLECULE
BDB33240
43 45 1                 
SMALL
USER_CHARGES
@<TRIPOS>ATOM
1	 H05	1.970	9.630	23.230	 H	1	UNK0	0.000	
2	 H06	2.730	7.750	23.260	 H	1	UNK0	0.000	
3	 H10	0.460	8.570	27.740	 H	1	UNK0	0.000	
4	 H11	-0.960	6.990	29.230	 H	1	UNK0	0.000	
5	 H08	1.720	6.700	21.280	 H	1	UNK0	0.000	
6	 H09	1.990	7.480	19.740	 H	1	UNK0	0.000	
7	 H13	1.560	8.280	30.400	 H	1	UNK0	0.000	
8	 H14	0.860	6.730	30.900	 H	1	UNK0	0.000	
9	 H04	5.430	12.920	24.960	 H	1	UNK0	0.000	
10	 H15	1.540	6.910	29.270	 H	1	UNK0	0.000	
11	 H02	-0.850	13.340	21.120	 H	1	UNK0	0.000	
12	 H01	1.170	10.060	26.420	 H	1	UNK0	0.000	
13	 H03	-2.320	13.580	21.950	 H	1	UNK0	0.000	
14	 H12	-0.940	8.350	30.360	 H	1	UNK0	0.000	
15	 H07	4.070	6.760	22.720	 H	1	UNK0	0.000	
16	  C1	0.920	12.010	23.950	C.2	1	UNK0	0.000	
17	  N1	0.450	12.780	22.920	N.2	1	UNK0	0.000	
18	  C2	-0.820	13.180	22.990	C.2	1	UNK0	0.000	
19	  N2	-1.760	12.890	23.890	N.2	1	UNK0	0.000	
20	  C3	0.060	11.550	24.950	C.2	1	UNK0	0.000	
21	  C4	0.240	10.550	26.180	C.2	1	UNK0	0.000	
22	  C5	-1.320	12.060	24.880	C.2	1	UNK0	0.000	
23	  S1	-2.390	11.440	26.260	S.3	1	UNK0	0.000	
24	  C6	-1.010	10.400	26.960	C.2	1	UNK0	0.000	
25	  N3	-1.340	13.800	21.880	N.pl3	1	UNK0	0.000	
26	  C7	2.310	11.670	23.940	C.2	1	UNK0	0.000	
27	  C8	5.120	10.890	24.150	C.2	1	UNK0	0.000	
28	  C9	4.700	12.210	24.560	C.2	1	UNK0	0.000	
29	 C10	3.330	12.610	24.410	C.2	1	UNK0	0.000	
30	 C11	2.730	10.310	23.570	C.2	1	UNK0	0.000	
31	 C12	4.150	9.930	23.630	C.2	1	UNK0	0.000	
32	 Cl1	6.800	10.530	24.290	Cl	1	UNK0	0.000	
33	 Cl2	2.920	14.230	24.870	Cl	1	UNK0	0.000	
34	  O1	4.630	8.670	23.250	O.3	1	UNK0	0.000	
35	 C13	3.650	7.770	22.670	C.3	1	UNK0	0.000	
36	 C14	3.350	8.040	21.190	C.2	1	UNK0	0.000	
37	  N4	2.270	7.350	20.700	N.pl3	1	UNK0	0.000	
38	  O2	3.910	8.870	20.500	O.2	1	UNK0	0.000	
39	 C15	-1.240	9.610	28.130	C.2	1	UNK0	0.000	
40	  N5	-0.250	8.750	28.440	N.pl3	1	UNK0	0.000	
41	  O3	-2.240	9.680	28.830	O.2	1	UNK0	0.000	
42	 C16	-0.380	7.850	29.560	C.3	1	UNK0	0.000	
43	 C17	0.970	7.420	30.060	C.3	1	UNK0	0.000	
@<TRIPOS>BOND
1 16 17 1
2 16 20 2
3 16 26 1
4 17 18 2
5 18 19 1
6 18 25 1
7 19 22 2
8 20 21 1
9 20 22 1
10 12 21 1
11 21 24 2
12 22 23 1
13 23 24 1
14 24 39 1
15 11 25 1
16 13 25 1
17 26 29 2
18 26 30 1
19 27 28 2
20 27 31 1
21 27 32 1
22 9 28 1
23 28 29 1
24 29 33 1
25 1 30 1
26 30 31 2
27 31 34 1
28 34 35 1
29 2 35 1
30 15 35 1
31 35 36 1
32 36 37 1
33 36 38 2
34 5 37 1
35 6 37 1
36 39 40 1
37 39 41 2
38 3 40 1
39 40 42 1
40 4 42 1
41 14 42 1
42 42 43 1
43 7 43 1
44 8 43 1
45 10 43 1
@<TRIPOS>SUBSTRUCTURE
1	UNK0	1	GROUP	1 ****	UNK
