# created with PyMOL 2.5.0
@<TRIPOS>MOLECULE
BDB33240
43 45 1                 
SMALL
USER_CHARGES
@<TRIPOS>ATOM
1	 H05	2.950	9.020	22.650	 H	1	UNK0	0.000	
2	 H06	3.500	6.890	22.960	 H	1	UNK0	0.000	
3	 H10	0.910	8.270	27.480	 H	1	UNK0	0.000	
4	 H11	-1.190	7.420	29.030	 H	1	UNK0	0.000	
5	 H08	1.820	7.610	19.880	 H	1	UNK0	0.000	
6	 H09	1.690	7.130	21.560	 H	1	UNK0	0.000	
7	 H13	0.450	6.280	30.520	 H	1	UNK0	0.000	
8	 H14	0.940	6.130	28.820	 H	1	UNK0	0.000	
9	 H04	6.960	11.350	24.710	 H	1	UNK0	0.000	
10	 H15	1.750	7.300	29.860	 H	1	UNK0	0.000	
11	 H02	2.040	14.630	22.150	 H	1	UNK0	0.000	
12	 H01	1.920	9.370	25.960	 H	1	UNK0	0.000	
13	 H03	0.390	14.850	22.510	 H	1	UNK0	0.000	
14	 H12	-0.390	8.590	30.080	 H	1	UNK0	0.000	
15	 H07	4.510	5.790	22.060	 H	1	UNK0	0.000	
16	  C1	2.360	11.460	23.620	C.2	1	UNK0	0.000	
17	  N1	2.240	12.510	22.740	N.2	1	UNK0	0.000	
18	  C2	1.110	13.210	22.790	C.2	1	UNK0	0.000	
19	  N2	0.090	13.130	23.630	N.2	1	UNK0	0.000	
20	  C3	1.360	11.190	24.570	C.2	1	UNK0	0.000	
21	  C4	1.200	10.140	25.740	C.2	1	UNK0	0.000	
22	  C5	0.210	12.110	24.510	C.2	1	UNK0	0.000	
23	  S1	-1.030	11.790	25.850	S.3	1	UNK0	0.000	
24	  C6	-0.040	10.360	26.520	C.2	1	UNK0	0.000	
25	  N3	1.100	14.310	22.010	N.pl3	1	UNK0	0.000	
26	  C7	3.650	10.810	23.680	C.2	1	UNK0	0.000	
27	  C8	6.290	9.540	23.660	C.2	1	UNK0	0.000	
28	  C9	6.110	10.840	24.250	C.2	1	UNK0	0.000	
29	 C10	4.810	11.460	24.280	C.2	1	UNK0	0.000	
30	 C11	3.830	9.480	23.090	C.2	1	UNK0	0.000	
31	 C12	5.150	8.840	23.060	C.2	1	UNK0	0.000	
32	 Cl1	7.880	8.850	23.710	Cl	1	UNK0	0.000	
33	 Cl2	4.670	13.000	25.070	Cl	1	UNK0	0.000	
34	  O1	5.410	7.590	22.460	O.3	1	UNK0	0.000	
35	 C13	4.210	6.840	22.140	C.3	1	UNK0	0.000	
36	 C14	3.630	7.220	20.780	C.2	1	UNK0	0.000	
37	  N4	2.270	7.210	20.710	N.pl3	1	UNK0	0.000	
38	  O2	4.300	7.550	19.820	O.2	1	UNK0	0.000	
39	 C15	-0.540	9.680	27.690	C.2	1	UNK0	0.000	
40	  N5	0.190	8.620	28.100	N.pl3	1	UNK0	0.000	
41	  O3	-1.520	10.010	28.340	O.2	1	UNK0	0.000	
42	 C16	-0.230	7.880	29.260	C.3	1	UNK0	0.000	
43	 C17	0.790	6.840	29.640	C.3	1	UNK0	0.000	
@<TRIPOS>BOND
1 16 17 1
2 16 20 2
3 16 26 1
4 17 18 2
5 18 19 1
6 18 25 1
7 19 22 2
8 20 21 1
9 20 22 1
10 12 21 1
11 21 24 2
12 22 23 1
13 23 24 1
14 24 39 1
15 11 25 1
16 13 25 1
17 26 29 2
18 26 30 1
19 27 28 2
20 27 31 1
21 27 32 1
22 9 28 1
23 28 29 1
24 29 33 1
25 1 30 1
26 30 31 2
27 31 34 1
28 34 35 1
29 2 35 1
30 15 35 1
31 35 36 1
32 36 37 1
33 36 38 2
34 5 37 1
35 6 37 1
36 39 40 1
37 39 41 2
38 3 40 1
39 40 42 1
40 4 42 1
41 14 42 1
42 42 43 1
43 7 43 1
44 8 43 1
45 10 43 1
@<TRIPOS>SUBSTRUCTURE
1	UNK0	1	GROUP	1 ****	UNK
