# created with PyMOL 2.5.0
@<TRIPOS>MOLECULE
BDB33240
43 45 1                 
SMALL
USER_CHARGES
@<TRIPOS>ATOM
1	 H05	2.030	10.650	23.010	 H	1	UNK0	0.000	
2	 H06	3.420	9.130	23.290	 H	1	UNK0	0.000	
3	 H10	0.490	8.850	27.030	 H	1	UNK0	0.000	
4	 H11	-0.420	6.900	28.340	 H	1	UNK0	0.000	
5	 H08	2.530	8.850	19.860	 H	1	UNK0	0.000	
6	 H09	2.360	8.230	21.490	 H	1	UNK0	0.000	
7	 H13	1.250	8.900	29.950	 H	1	UNK0	0.000	
8	 H14	1.080	7.170	30.320	 H	1	UNK0	0.000	
9	 H04	4.070	14.930	24.820	 H	1	UNK0	0.000	
10	 H15	1.890	7.680	28.840	 H	1	UNK0	0.000	
11	 H02	-1.750	13.770	20.650	 H	1	UNK0	0.000	
12	 H01	0.910	10.650	25.810	 H	1	UNK0	0.000	
13	 H03	-3.260	13.370	21.310	 H	1	UNK0	0.000	
14	 H12	-1.080	8.080	29.480	 H	1	UNK0	0.000	
15	 H07	5.020	8.660	22.740	 H	1	UNK0	0.000	
16	  C1	0.210	12.610	23.420	C.2	1	UNK0	0.000	
17	  N1	-0.440	13.300	22.420	N.2	1	UNK0	0.000	
18	  C2	-1.780	13.330	22.470	C.2	1	UNK0	0.000	
19	  N2	-2.620	12.760	23.340	N.2	1	UNK0	0.000	
20	  C3	-0.520	11.880	24.370	C.2	1	UNK0	0.000	
21	  C4	-0.110	10.910	25.560	C.2	1	UNK0	0.000	
22	  C5	-1.980	12.030	24.280	C.2	1	UNK0	0.000	
23	  S1	-2.880	11.090	25.600	S.3	1	UNK0	0.000	
24	  C6	-1.290	10.410	26.290	C.2	1	UNK0	0.000	
25	  N3	-2.400	13.900	21.400	N.pl3	1	UNK0	0.000	
26	  C7	1.640	12.740	23.540	C.2	1	UNK0	0.000	
27	  C8	4.520	12.880	24.150	C.2	1	UNK0	0.000	
28	  C9	3.650	14.010	24.410	C.2	1	UNK0	0.000	
29	 C10	2.250	13.960	24.070	C.2	1	UNK0	0.000	
30	 C11	2.510	11.570	23.340	C.2	1	UNK0	0.000	
31	 C12	3.950	11.660	23.570	C.2	1	UNK0	0.000	
32	 Cl1	6.210	13.080	24.450	Cl	1	UNK0	0.000	
33	 Cl2	1.330	15.390	24.380	Cl	1	UNK0	0.000	
34	  O1	4.880	10.640	23.270	O.3	1	UNK0	0.000	
35	 C13	4.260	9.450	22.680	C.3	1	UNK0	0.000	
36	 C14	3.910	9.620	21.210	C.2	1	UNK0	0.000	
37	  N4	2.910	8.780	20.790	N.pl3	1	UNK0	0.000	
38	  O2	4.390	10.430	20.430	O.2	1	UNK0	0.000	
39	 C15	-1.390	9.550	27.420	C.2	1	UNK0	0.000	
40	  N5	-0.250	8.840	27.720	N.pl3	1	UNK0	0.000	
41	  O3	-2.400	9.400	28.080	O.2	1	UNK0	0.000	
42	 C16	-0.260	7.890	28.780	C.3	1	UNK0	0.000	
43	 C17	1.070	7.900	29.520	C.3	1	UNK0	0.000	
@<TRIPOS>BOND
1 16 17 1
2 16 20 2
3 16 26 1
4 17 18 2
5 18 19 1
6 18 25 1
7 19 22 2
8 20 21 1
9 20 22 1
10 12 21 1
11 21 24 2
12 22 23 1
13 23 24 1
14 24 39 1
15 11 25 1
16 13 25 1
17 26 29 2
18 26 30 1
19 27 28 2
20 27 31 1
21 27 32 1
22 9 28 1
23 28 29 1
24 29 33 1
25 1 30 1
26 30 31 2
27 31 34 1
28 34 35 1
29 2 35 1
30 15 35 1
31 35 36 1
32 36 37 1
33 36 38 2
34 5 37 1
35 6 37 1
36 39 40 1
37 39 41 2
38 3 40 1
39 40 42 1
40 4 42 1
41 14 42 1
42 42 43 1
43 7 43 1
44 8 43 1
45 10 43 1
@<TRIPOS>SUBSTRUCTURE
1	UNK0	1	GROUP	1 ****	UNK
