# created with PyMOL 2.5.0
@<TRIPOS>MOLECULE
cocrystal/docking_cocrystal/3rni_21Z_LIG.pdb
39 41 1                 
SMALL
USER_CHARGES
@<TRIPOS>ATOM
1	 H08	-20.046	204.189	119.791	 H	1	UNK0	0.000	
2	 H09	-18.963	203.703	120.936	 H	1	UNK0	0.000	
3	 H13	-17.220	206.124	111.061	 H	1	UNK0	0.000	
4	 H10	-12.825	206.403	113.479	 H	1	UNK0	0.000	
5	 H07	-14.247	200.292	117.536	 H	1	UNK0	0.000	
6	 H02	-14.903	206.824	115.261	 H	1	UNK0	0.000	
7	 H03	-13.582	202.718	118.473	 H	1	UNK0	0.000	
8	 H04	-16.845	203.512	118.902	 H	1	UNK0	0.000	
9	 H06	-16.127	198.649	117.839	 H	1	UNK0	0.000	
10	 H01	-14.364	207.657	118.820	 H	1	UNK0	0.000	
11	 H11	-12.890	205.762	111.054	 H	1	UNK0	0.000	
12	 H12	-15.082	205.629	109.847	 H	1	UNK0	0.000	
13	 H14	-17.170	206.773	113.487	 H	1	UNK0	0.000	
14	 H05	-18.366	199.453	118.673	 H	1	UNK0	0.000	
15	  N1	-14.449	205.212	118.209	N.2	1	UNK0	0.000	
16	  N2	-14.520	207.504	117.834	N.2	1	UNK0	0.000	
17	  C1	-14.804	206.048	116.020	C.3	1	UNK0	0.000	
18	  C2	-14.584	206.320	117.377	C.2	1	UNK0	0.000	
19	  C3	-14.564	204.104	117.498	C.2	1	UNK0	0.000	
20	  S1	-14.829	204.344	115.799	S.3	1	UNK0	0.000	
21	  N3	-14.481	202.947	118.074	N.pl3	1	UNK0	0.000	
22	  C4	-15.409	202.036	118.205	C.2	1	UNK0	0.000	
23	  C5	-16.681	202.460	118.668	C.2	1	UNK0	0.000	
24	  C6	-17.738	201.536	118.831	C.2	1	UNK0	0.000	
25	  C7	-17.547	200.159	118.538	C.2	1	UNK0	0.000	
26	  C8	-16.281	199.704	118.068	C.2	1	UNK0	0.000	
27	  C9	-15.215	200.637	117.899	C.2	1	UNK0	0.000	
28	  N4	-19.177	203.699	119.949	N.3	1	UNK0	0.000	
29	  O1	-20.260	202.064	118.298	O.2	1	UNK0	0.000	
30	  O2	-19.780	201.234	120.487	O.2	1	UNK0	0.000	
31	  S2	-19.320	202.109	119.410	S.o2	1	UNK0	0.000	
32	 C10	-14.983	207.000	115.006	C.2	1	UNK0	0.000	
33	  O3	-15.146	208.175	115.303	O.2	1	UNK0	0.000	
34	 C11	-14.996	206.639	113.663	C.2	1	UNK0	0.000	
35	 C12	-13.781	206.346	112.958	C.2	1	UNK0	0.000	
36	 C13	-13.817	205.982	111.583	C.2	1	UNK0	0.000	
37	 C14	-15.057	205.905	110.901	C.2	1	UNK0	0.000	
38	 C15	-16.268	206.188	111.588	C.2	1	UNK0	0.000	
39	 C16	-16.239	206.555	112.964	C.2	1	UNK0	0.000	
@<TRIPOS>BOND
1 15 18 1
2 15 19 2
3 10 16 1
4 16 18 2
5 6 17 1
6 17 18 1
7 17 20 1
8 17 32 1
9 19 20 1
10 19 21 1
11 7 21 1
12 21 22 1
13 22 23 2
14 22 27 1
15 8 23 1
16 23 24 1
17 24 25 2
18 24 31 1
19 14 25 1
20 25 26 1
21 9 26 1
22 26 27 2
23 5 27 1
24 1 28 1
25 2 28 1
26 28 31 1
27 29 31 2
28 30 31 2
29 32 33 2
30 32 34 1
31 34 35 1
32 34 39 2
33 4 35 1
34 35 36 2
35 11 36 1
36 36 37 1
37 12 37 1
38 37 38 2
39 3 38 1
40 38 39 1
41 13 39 1
@<TRIPOS>SUBSTRUCTURE
1	UNK0	1	GROUP	1 ****	UNK
