# created with PyMOL 2.5.0
@<TRIPOS>MOLECULE
cocrystal/docking_cocrystal/1ke9_LS5_LIG.pdb
40 42 1                 
SMALL
USER_CHARGES
@<TRIPOS>ATOM
1	 H08	-20.100	206.384	111.984	 H	1	UNK0	0.000	
2	 H09	-13.118	209.362	116.731	 H	1	UNK0	0.000	
3	 H13	-6.624	206.592	120.635	 H	1	UNK0	0.000	
4	 H14	-8.851	206.928	121.708	 H	1	UNK0	0.000	
5	 H11	-8.329	207.600	116.777	 H	1	UNK0	0.000	
6	 H03	-16.681	206.803	114.824	 H	1	UNK0	0.000	
7	 H01	-11.740	207.157	114.390	 H	1	UNK0	0.000	
8	 H04	-15.412	208.293	116.345	 H	1	UNK0	0.000	
9	 H07	-19.893	205.012	113.050	 H	1	UNK0	0.000	
10	 H05	-18.356	207.572	111.246	 H	1	UNK0	0.000	
11	 H02	-13.005	205.597	112.918	 H	1	UNK0	0.000	
12	 H12	-6.341	206.904	118.176	 H	1	UNK0	0.000	
13	 H15	-10.538	208.254	115.889	 H	1	UNK0	0.000	
14	 H06	-16.717	207.172	111.709	 H	1	UNK0	0.000	
15	 H10	-11.569	207.376	121.097	 H	1	UNK0	0.000	
16	  C1	-13.483	207.782	115.502	C.2	1	UNK0	0.000	
17	  C2	-12.818	207.050	114.511	C.2	1	UNK0	0.000	
18	  C3	-13.529	206.182	113.673	C.2	1	UNK0	0.000	
19	  C4	-14.919	206.071	113.814	C.2	1	UNK0	0.000	
20	  C5	-15.594	206.853	114.754	C.2	1	UNK0	0.000	
21	  C6	-14.882	207.697	115.602	C.2	1	UNK0	0.000	
22	  S1	-15.766	204.890	112.786	S.o2	1	UNK0	0.000	
23	  O1	-15.479	203.522	113.132	O.2	1	UNK0	0.000	
24	  O2	-15.569	205.374	111.470	O.2	1	UNK0	0.000	
25	  N1	-17.337	205.106	113.225	N.2	1	UNK0	0.000	
26	  C7	-18.169	205.957	112.494	C.2	1	UNK0	0.000	
27	  N2	-17.709	206.987	111.755	N.pl3	1	UNK0	0.000	
28	  N3	-19.497	205.769	112.511	N.pl3	1	UNK0	0.000	
29	  N4	-12.712	208.532	116.324	N.pl3	1	UNK0	0.000	
30	  N5	-11.193	207.461	120.163	N.pl3	1	UNK0	0.000	
31	  C8	-11.921	207.714	119.051	C.2	1	UNK0	0.000	
32	  C9	-10.990	207.848	117.914	C.2	1	UNK0	0.000	
33	 C10	-8.436	207.416	117.846	C.2	1	UNK0	0.000	
34	 C11	-7.318	207.046	118.637	C.2	1	UNK0	0.000	
35	 C12	-7.483	206.865	120.022	C.2	1	UNK0	0.000	
36	 C13	-8.743	207.033	120.629	C.2	1	UNK0	0.000	
37	 C14	-9.860	207.336	119.831	C.2	1	UNK0	0.000	
38	 C15	-9.697	207.539	118.483	C.2	1	UNK0	0.000	
39	  O3	-13.136	207.814	118.948	O.2	1	UNK0	0.000	
40	 C16	-11.310	208.206	116.657	C.2	1	UNK0	0.000	
@<TRIPOS>BOND
1 16 17 2
2 16 21 1
3 16 29 1
4 7 17 1
5 17 18 1
6 11 18 1
7 18 19 2
8 19 20 1
9 19 22 1
10 6 20 1
11 20 21 2
12 8 21 1
13 22 23 2
14 22 24 2
15 22 25 1
16 25 26 2
17 26 27 1
18 26 28 1
19 10 27 1
20 14 27 1
21 1 28 1
22 9 28 1
23 2 29 1
24 29 40 1
25 15 30 1
26 30 31 1
27 30 37 1
28 31 32 1
29 31 39 2
30 32 38 1
31 32 40 2
32 5 33 1
33 33 34 1
34 33 38 2
35 12 34 1
36 34 35 2
37 3 35 1
38 35 36 1
39 4 36 1
40 36 37 2
41 37 38 1
42 13 40 1
@<TRIPOS>SUBSTRUCTURE
1	UNK0	1	GROUP	1 ****	UNK
