data/HSP90/cocry_dataset/1byq_ADP_LIG.pdb
 OpenBabel03092321123D

 34 36  0  0  0  0  0  0  0  0999 V2000
    3.9289    8.8756   23.2663 C   0  0  1  0  0  0  0  0  0  0  0  0
    4.5163   10.1188   22.8206 O   0  0  0  0  0  0  0  0  0  0  0  0
    5.9605    9.9618   22.7168 C   0  0  2  0  0  0  0  0  0  0  0  0
    6.2891    8.6218   23.3847 C   0  0  1  0  0  0  0  0  0  0  0  0
    5.0198    7.8225   23.1019 C   0  0  2  0  0  0  0  0  0  0  0  0
    5.0945    7.3034   21.7656 O   0  0  0  0  0  0  0  0  0  0  0  0
    7.4284    7.9550   22.8577 O   0  0  0  0  0  0  0  0  0  0  0  0
    4.5957    7.8817   21.1635 H   0  0  0  0  0  0  0  0  0  0  0  0
    7.1009    7.3565   22.1544 H   0  0  0  0  0  0  0  0  0  0  0  0
    6.5919   11.1198   23.3265 N   0  0  0  0  0  0  0  0  0  0  0  0
    7.9334   11.2822   23.5506 C   0  0  0  0  0  0  0  0  0  0  0  0
    8.2194   12.4554   24.0738 N   0  0  0  0  0  0  0  0  0  0  0  0
    6.9845   13.0528   24.2597 C   0  0  0  0  0  0  0  0  0  0  0  0
    6.5971   14.2992   24.7893 C   0  0  0  0  0  0  0  0  0  0  0  0
    7.5040   15.2529   25.2339 N   0  0  0  0  0  0  0  0  0  0  0  0
    5.2799   14.5753   24.9010 N   0  0  0  0  0  0  0  0  0  0  0  0
    4.3908   13.6565   24.4614 C   0  0  0  0  0  0  0  0  0  0  0  0
    4.6360   12.4502   23.9092 N   0  0  0  0  0  0  0  0  0  0  0  0
    5.9599   12.2175   23.8393 C   0  0  0  0  0  0  0  0  0  0  0  0
    8.4149   14.8803   25.4690 H   0  0  0  0  0  0  0  0  0  0  0  0
    7.0816   15.9153   25.8713 H   0  0  0  0  0  0  0  0  0  0  0  0
    3.5188    8.9278   24.7431 C   0  0  0  0  0  0  0  0  0  0  0  0
    2.9463   10.1651   25.1313 O   0  0  0  0  0  0  0  0  0  0  0  0
    1.3444   10.2720   24.9744 P   0  0  1  0  0  0  0  0  0  0  0  0
    0.7591    9.3558   23.9563 O   0  0  0  0  0  0  0  0  0  0  0  0
    0.8221    9.9500   26.4553 O   0  0  0  0  0  0  0  0  0  0  0  0
    0.4581    9.0465   26.5079 H   0  0  0  0  0  0  0  0  0  0  0  0
    1.0198   11.8273   24.7707 O   0  0  0  0  0  0  0  0  0  0  0  0
    0.8505   12.2586   23.1039 P   0  0  0  0  0  0  0  0  0  0  0  0
    1.2472   13.6966   23.4303 O   0  0  0  0  0  0  0  0  0  0  0  0
    2.2846   11.5777   22.7403 O   0  0  0  0  0  0  0  0  0  0  0  0
    0.6811   12.6899   21.4371 O   0  0  0  0  0  0  0  0  0  0  0  0
    2.9266   12.3193   22.7160 H   0  0  0  0  0  0  0  0  0  0  0  0
    0.8094   11.9014   20.8699 H   0  0  0  0  0  0  0  0  0  0  0  0
  1 22  1  1  0  0  0
  1  2  1  0  0  0  0
  1  5  1  0  0  0  0
  2  3  1  0  0  0  0
  3  4  1  0  0  0  0
  3 10  1  1  0  0  0
  4  5  1  0  0  0  0
  4  7  1  6  0  0  0
  5  6  1  6  0  0  0
  6  8  1  0  0  0  0
  7  9  1  0  0  0  0
 10 11  1  0  0  0  0
 10 19  1  0  0  0  0
 11 12  2  0  0  0  0
 12 13  1  0  0  0  0
 13 14  1  0  0  0  0
 13 19  2  0  0  0  0
 14 15  1  0  0  0  0
 14 16  2  0  0  0  0
 15 20  1  0  0  0  0
 15 21  1  0  0  0  0
 16 17  1  0  0  0  0
 17 18  2  0  0  0  0
 18 19  1  0  0  0  0
 23 22  1  0  0  0  0
 24 26  1  0  0  0  0
 24 23  1  0  0  0  0
 24 25  2  6  0  0  0
 24 28  1  0  0  0  0
 26 27  1  0  0  0  0
 29 30  2  0  0  0  0
 29 31  1  0  0  0  0
 29 32  1  0  0  0  0
 29 28  1  0  0  0  0
 31 33  1  0  0  0  0
 32 34  1  0  0  0  0
M  END
>  <minimizedAffinity>
-7.98221

$$$$
