data/HSP90/cocry_dataset/1byq_ADP_LIG.pdb
 OpenBabel03092321123D

 34 36  0  0  0  0  0  0  0  0999 V2000
    5.9513    8.8792   22.9064 C   0  0  1  0  0  0  0  0  0  0  0  0
    5.5903   10.2369   22.5665 O   0  0  0  0  0  0  0  0  0  0  0  0
    6.6319   11.1445   23.0273 C   0  0  2  0  0  0  0  0  0  0  0  0
    7.5531   10.3100   23.9244 C   0  0  1  0  0  0  0  0  0  0  0  0
    7.4275    8.9287   23.2869 C   0  0  2  0  0  0  0  0  0  0  0  0
    8.2977    8.8703   22.1468 O   0  0  0  0  0  0  0  0  0  0  0  0
    8.9106   10.7310   23.9431 O   0  0  0  0  0  0  0  0  0  0  0  0
    7.7863    9.0431   21.3379 H   0  0  0  0  0  0  0  0  0  0  0  0
    9.3710   10.2198   23.2452 H   0  0  0  0  0  0  0  0  0  0  0  0
    5.9970   12.2738   23.6853 N   0  0  0  0  0  0  0  0  0  0  0  0
    4.6546   12.4247   23.9118 C   0  0  0  0  0  0  0  0  0  0  0  0
    4.3752   13.5275   24.5734 N   0  0  0  0  0  0  0  0  0  0  0  0
    5.6010   14.1540   24.7195 C   0  0  0  0  0  0  0  0  0  0  0  0
    5.9867   15.3691   25.3185 C   0  0  0  0  0  0  0  0  0  0  0  0
    5.0948   16.2182   25.9614 N   0  0  0  0  0  0  0  0  0  0  0  0
    7.2805   15.7481   25.2416 N   0  0  0  0  0  0  0  0  0  0  0  0
    8.1570   14.9228   24.6262 C   0  0  0  0  0  0  0  0  0  0  0  0
    7.9179   13.7277   24.0477 N   0  0  0  0  0  0  0  0  0  0  0  0
    6.6135   13.4074   24.1350 C   0  0  0  0  0  0  0  0  0  0  0  0
    4.1295   16.0899   25.6863 H   0  0  0  0  0  0  0  0  0  0  0  0
    5.4484   17.1635   26.0311 H   0  0  0  0  0  0  0  0  0  0  0  0
    5.1547    8.3535   24.1067 C   0  0  0  0  0  0  0  0  0  0  0  0
    4.2137    9.2831   24.6163 O   0  0  0  0  0  0  0  0  0  0  0  0
    2.6633    8.9126   24.3689 P   0  0  1  0  0  0  0  0  0  0  0  0
    2.4351    7.8518   23.3484 O   0  0  0  0  0  0  0  0  0  0  0  0
    2.1684    8.4704   25.8280 O   0  0  0  0  0  0  0  0  0  0  0  0
    2.0822    7.5006   25.8880 H   0  0  0  0  0  0  0  0  0  0  0  0
    1.9111   10.3010   24.1007 O   0  0  0  0  0  0  0  0  0  0  0  0
    0.3661   10.3809   24.8751 P   0  0  0  0  0  0  0  0  0  0  0  0
   -0.1561   11.2749   23.7527 O   0  0  0  0  0  0  0  0  0  0  0  0
   -0.0232    8.8921   24.3417 O   0  0  0  0  0  0  0  0  0  0  0  0
   -1.1788   10.4608   25.6495 O   0  0  0  0  0  0  0  0  0  0  0  0
   -0.5778    9.0373   23.5454 H   0  0  0  0  0  0  0  0  0  0  0  0
   -1.3145    9.6713   26.2137 H   0  0  0  0  0  0  0  0  0  0  0  0
  1 22  1  1  0  0  0
  1  2  1  0  0  0  0
  1  5  1  0  0  0  0
  2  3  1  0  0  0  0
  3  4  1  0  0  0  0
  3 10  1  1  0  0  0
  4  5  1  0  0  0  0
  4  7  1  6  0  0  0
  5  6  1  6  0  0  0
  6  8  1  0  0  0  0
  7  9  1  0  0  0  0
 10 11  1  0  0  0  0
 10 19  1  0  0  0  0
 11 12  2  0  0  0  0
 12 13  1  0  0  0  0
 13 14  1  0  0  0  0
 13 19  2  0  0  0  0
 14 15  1  0  0  0  0
 14 16  2  0  0  0  0
 15 20  1  0  0  0  0
 15 21  1  0  0  0  0
 16 17  1  0  0  0  0
 17 18  2  0  0  0  0
 18 19  1  0  0  0  0
 23 22  1  0  0  0  0
 24 26  1  0  0  0  0
 24 23  1  0  0  0  0
 24 25  2  6  0  0  0
 24 28  1  0  0  0  0
 26 27  1  0  0  0  0
 29 30  2  0  0  0  0
 29 31  1  0  0  0  0
 29 32  1  0  0  0  0
 29 28  1  0  0  0  0
 31 33  1  0  0  0  0
 32 34  1  0  0  0  0
M  END
>  <minimizedAffinity>
-7.93478

$$$$
