# created with PyMOL 2.5.0
@<TRIPOS>MOLECULE
data/HSP90/cocry_dataset/1byq_ADP_LIG.pdb
42 44 1                 
SMALL
USER_CHARGES
@<TRIPOS>ATOM
1	 H06	9.301	10.683	24.868	 H	1	UNK0	0.000	
2	 H07	3.989	11.723	23.504	 H	1	UNK0	0.000	
3	 H11	5.930	8.070	24.802	 H	1	UNK0	0.000	
4	 H12	4.631	7.507	23.673	 H	1	UNK0	0.000	
5	 H09	4.170	15.948	26.010	 H	1	UNK0	0.000	
6	 H01	5.850	8.238	21.993	 H	1	UNK0	0.000	
7	 H14	0.002	8.118	23.271	 H	1	UNK0	0.000	
8	 H15	-0.951	6.118	25.670	 H	1	UNK0	0.000	
9	 H05	8.533	9.769	21.785	 H	1	UNK0	0.000	
10	 H03	7.321	10.360	24.954	 H	1	UNK0	0.000	
11	 H10	9.270	15.241	24.683	 H	1	UNK0	0.000	
12	 H02	7.354	11.589	22.227	 H	1	UNK0	0.000	
13	 H13	1.950	7.822	22.771	 H	1	UNK0	0.000	
14	 H04	7.780	8.081	23.883	 H	1	UNK0	0.000	
15	 H08	5.472	17.053	26.392	 H	1	UNK0	0.000	
16	   C	6.044	8.890	22.844	C.3	1	UNK0	0.000	
17	   O	5.694	10.253	22.513	O.3	1	UNK0	0.000	
18	   C	6.729	11.151	23.005	C.3	1	UNK0	0.000	
19	   C	7.630	10.304	23.911	C.3	1	UNK0	0.000	
20	   C	7.513	8.930	23.255	C.3	1	UNK0	0.000	
21	   O	8.405	8.882	22.132	O.3	1	UNK0	0.000	
22	   O	8.988	10.720	23.961	O.3	1	UNK0	0.000	
23	   N	6.084	12.275	23.663	N.pl3	1	UNK0	0.000	
24	   C	4.738	12.429	23.862	C.2	1	UNK0	0.000	
25	   N	4.449	13.525	24.531	N.2	1	UNK0	0.000	
26	   C	5.674	14.143	24.713	C.2	1	UNK0	0.000	
27	   C	6.051	15.349	25.337	C.2	1	UNK0	0.000	
28	   N	5.149	16.193	25.971	N.pl3	1	UNK0	0.000	
29	   N	7.348	15.722	25.294	N.2	1	UNK0	0.000	
30	   C	8.234	14.901	24.688	C.2	1	UNK0	0.000	
31	   N	8.003	13.715	24.088	N.2	1	UNK0	0.000	
32	   C	6.696	13.400	24.142	C.2	1	UNK0	0.000	
33	   C	5.222	8.353	24.022	C.3	1	UNK0	0.000	
34	   O	4.344	9.311	24.587	O.3	1	UNK0	0.000	
35	   P	2.781	9.115	24.239	P.3	1	UNK0	0.000	
36	   O	2.119	10.319	23.663	O.co2	1	UNK0	0.000	
37	   O	2.799	7.881	23.216	O.3	1	UNK0	0.000	
38	   O	2.102	8.521	25.563	O.3	1	UNK0	0.000	
39	   P	0.712	7.550	25.218	P.3	1	UNK0	0.000	
40	   O	0.022	8.082	26.472	O.co2	1	UNK0	0.000	
41	   O	0.212	8.597	24.076	O.3	1	UNK0	0.000	
42	   O	-0.677	6.578	24.874	O.3	1	UNK0	0.000	
@<TRIPOS>BOND
1 6 16 1
2 16 17 1
3 16 20 1
4 16 33 1
5 17 18 1
6 12 18 1
7 18 19 1
8 18 23 1
9 10 19 1
10 19 20 1
11 19 22 1
12 14 20 1
13 20 21 1
14 9 21 1
15 1 22 1
16 23 24 1
17 23 32 1
18 2 24 1
19 24 25 2
20 25 26 1
21 26 27 1
22 26 32 2
23 27 28 1
24 27 29 2
25 5 28 1
26 15 28 1
27 29 30 1
28 11 30 1
29 30 31 2
30 31 32 1
31 3 33 1
32 4 33 1
33 33 34 1
34 34 35 1
35 35 36 2
36 35 37 1
37 35 38 1
38 13 37 1
39 38 39 1
40 39 40 2
41 39 41 1
42 39 42 1
43 7 41 1
44 8 42 1
@<TRIPOS>SUBSTRUCTURE
1	UNK0	1	GROUP	1 ****	UNK
