data/HSP90/cocry_dataset/1uy6_PU3_LIG.pdb


 29 31  0  0  0  0  0  0  0  0999 V2000
    5.2241   12.0545   23.7783 C   0  0  0  0  0  0  0  0  0  0  0  0
    4.7517   13.1317   24.3876 N   0  0  0  0  0  0  0  0  0  0  0  0
    5.8364   13.9503   24.6038 C   0  0  0  0  0  0  0  0  0  0  0  0
    5.9790   15.1951   25.2384 C   0  0  0  0  0  0  0  0  0  0  0  0
    4.9174   15.8891   25.8101 N   0  0  0  0  0  0  0  0  0  0  0  0
    7.2057   15.7590   25.2987 N   0  0  0  0  0  0  0  0  0  0  0  0
    8.2415   15.0912   24.7549 C   0  0  0  0  0  0  0  0  0  0  0  0
    8.2210   13.9105   24.1110 N   0  0  0  0  0  0  0  0  0  0  0  0
    6.9886   13.3825   24.0819 C   0  0  0  0  0  0  0  0  0  0  0  0
    6.5940   12.1695   23.5656 N   0  0  0  0  0  0  0  0  0  0  0  0
    4.0174   15.6268   25.4265 H   0  0  0  0  0  0  0  0  0  0  0  0
    5.1213   16.8749   25.8988 H   0  0  0  0  0  0  0  0  0  0  0  0
    4.3824   10.8637   23.4186 C   0  0  0  0  0  0  0  0  0  0  0  0
    0.7531   12.0598   23.5964 C   0  0  0  0  0  0  0  0  0  0  0  0
    2.0594   11.8287   23.1432 C   0  0  0  0  0  0  0  0  0  0  0  0
    2.9412   11.0059   23.8533 C   0  0  0  0  0  0  0  0  0  0  0  0
    2.4846   10.3592   25.0086 C   0  0  0  0  0  0  0  0  0  0  0  0
    1.1718   10.5371   25.4589 C   0  0  0  0  0  0  0  0  0  0  0  0
    0.2932   11.3853   24.7462 C   0  0  0  0  0  0  0  0  0  0  0  0
   -0.1918   12.8923   21.5617 C   0  0  0  0  0  0  0  0  0  0  0  0
   -0.0931   12.9458   22.9793 O   0  0  0  0  0  0  0  0  0  0  0  0
   -0.9538   11.5352   25.3119 O   0  0  0  0  0  0  0  0  0  0  0  0
   -2.0313   10.8309   24.7100 C   0  0  0  0  0  0  0  0  0  0  0  0
    0.6595    9.9360   26.5854 O   0  0  0  0  0  0  0  0  0  0  0  0
    0.7799    8.5236   26.6930 C   0  0  0  0  0  0  0  0  0  0  0  0
    7.4622   11.2097   22.9012 C   0  0  0  0  0  0  0  0  0  0  0  0
    8.0577   10.1240   23.8037 C   0  0  0  0  0  0  0  0  0  0  0  0
    7.7597    8.7143   23.2975 C   0  0  0  0  0  0  0  0  0  0  0  0
    7.9505    7.6954   24.4127 C   0  0  0  0  0  0  0  0  0  0  0  0
 20 21  1  0  0  0
 21 14  1  0  0  0
 14 15  1  0  0  0
 14 19  2  0  0  0
 15 16  2  0  0  0
 16 17  1  0  0  0
 16 13  1  0  0  0
 17 18  2  0  0  0
 18 19  1  0  0  0
 18 24  1  0  0  0
 19 22  1  0  0  0
 22 23  1  0  0  0
 24 25  1  0  0  0
 13  1  1  0  0  0
  1  2  2  0  0  0
  1 10  1  0  0  0
  2  3  1  0  0  0
  3  4  1  0  0  0
  3  9  2  0  0  0
  4  5  1  0  0  0
  4  6  2  0  0  0
  5 11  1  0  0  0
  5 12  1  0  0  0
  6  7  1  0  0  0
  7  8  2  0  0  0
  8  9  1  0  0  0
  9 10  1  0  0  0
 10 26  1  0  0  0
 26 27  1  0  0  0
 27 28  1  0  0  0
 28 29  1  0  0  0
M  END
> <minimizedAffinity>
-9.32736

$$$$
data/HSP90/cocry_dataset/1uy6_PU3_LIG.pdb


 29 31  0  0  0  0  0  0  0  0999 V2000
    4.9418   12.0428   23.7069 C   0  0  0  0  0  0  0  0  0  0  0  0
    4.4693   13.1026   24.3458 N   0  0  0  0  0  0  0  0  0  0  0  0
    5.5588   13.8987   24.6154 C   0  0  0  0  0  0  0  0  0  0  0  0
    5.7027   15.1171   25.2989 C   0  0  0  0  0  0  0  0  0  0  0  0
    4.6373   15.8030   25.8734 N   0  0  0  0  0  0  0  0  0  0  0  0
    6.9344   15.6626   25.4061 N   0  0  0  0  0  0  0  0  0  0  0  0
    7.9737   15.0023   24.8598 C   0  0  0  0  0  0  0  0  0  0  0  0
    7.9529   13.8466   24.1720 N   0  0  0  0  0  0  0  0  0  0  0  0
    6.7151   13.3359   24.0971 C   0  0  0  0  0  0  0  0  0  0  0  0
    6.3173   12.1479   23.5277 N   0  0  0  0  0  0  0  0  0  0  0  0
    3.7427   15.5667   25.4613 H   0  0  0  0  0  0  0  0  0  0  0  0
    4.8511   16.7821   26.0031 H   0  0  0  0  0  0  0  0  0  0  0  0
    4.0939   10.8769   23.2853 C   0  0  0  0  0  0  0  0  0  0  0  0
    1.4794    9.5393   25.7368 C   0  0  0  0  0  0  0  0  0  0  0  0
    2.6895    9.7433   25.0590 C   0  0  0  0  0  0  0  0  0  0  0  0
    2.8227   10.7480   24.0939 C   0  0  0  0  0  0  0  0  0  0  0  0
    1.7383   11.5989   23.8459 C   0  0  0  0  0  0  0  0  0  0  0  0
    0.5331   11.4460   24.5401 C   0  0  0  0  0  0  0  0  0  0  0  0
    0.4007   10.4161   25.4999 C   0  0  0  0  0  0  0  0  0  0  0  0
    2.2955    8.2539   27.5829 C   0  0  0  0  0  0  0  0  0  0  0  0
    1.2906    8.4949   26.6059 O   0  0  0  0  0  0  0  0  0  0  0  0
   -0.8461   10.3188   26.0774 O   0  0  0  0  0  0  0  0  0  0  0  0
   -0.9418   10.5859   27.4698 C   0  0  0  0  0  0  0  0  0  0  0  0
   -0.5711   12.2431   24.3444 O   0  0  0  0  0  0  0  0  0  0  0  0
   -1.2384   12.1511   23.0925 C   0  0  0  0  0  0  0  0  0  0  0  0
    7.1880   11.2024   22.8465 C   0  0  0  0  0  0  0  0  0  0  0  0
    7.9458   10.2300   23.7564 C   0  0  0  0  0  0  0  0  0  0  0  0
    7.2346    8.8858   23.8970 C   0  0  0  0  0  0  0  0  0  0  0  0
    8.2451    7.7471   23.9178 C   0  0  0  0  0  0  0  0  0  0  0  0
 20 21  1  0  0  0
 21 14  1  0  0  0
 14 15  1  0  0  0
 14 19  2  0  0  0
 15 16  2  0  0  0
 16 17  1  0  0  0
 16 13  1  0  0  0
 17 18  2  0  0  0
 18 19  1  0  0  0
 18 24  1  0  0  0
 19 22  1  0  0  0
 22 23  1  0  0  0
 24 25  1  0  0  0
 13  1  1  0  0  0
  1  2  2  0  0  0
  1 10  1  0  0  0
  2  3  1  0  0  0
  3  4  1  0  0  0
  3  9  2  0  0  0
  4  5  1  0  0  0
  4  6  2  0  0  0
  5 11  1  0  0  0
  5 12  1  0  0  0
  6  7  1  0  0  0
  7  8  2  0  0  0
  8  9  1  0  0  0
  9 10  1  0  0  0
 10 26  1  0  0  0
 26 27  1  0  0  0
 27 28  1  0  0  0
 28 29  1  0  0  0
M  END
> <minimizedAffinity>
-9.07220

$$$$
data/HSP90/cocry_dataset/1uy6_PU3_LIG.pdb


 29 31  0  0  0  0  0  0  0  0999 V2000
    6.7643   12.8562   23.9585 C   0  0  0  0  0  0  0  0  0  0  0  0
    5.4418   12.7931   23.9162 N   0  0  0  0  0  0  0  0  0  0  0  0
    4.9883   13.9015   24.5938 C   0  0  0  0  0  0  0  0  0  0  0  0
    3.7008   14.3580   24.9200 C   0  0  0  0  0  0  0  0  0  0  0  0
    2.5365   13.6880   24.5580 N   0  0  0  0  0  0  0  0  0  0  0  0
    3.5746   15.5087   25.6173 N   0  0  0  0  0  0  0  0  0  0  0  0
    4.6964   16.1609   25.9791 C   0  0  0  0  0  0  0  0  0  0  0  0
    5.9718   15.8301   25.7092 N   0  0  0  0  0  0  0  0  0  0  0  0
    6.0519   14.6795   25.0249 C   0  0  0  0  0  0  0  0  0  0  0  0
    7.1819   14.0032   24.6257 N   0  0  0  0  0  0  0  0  0  0  0  0
    2.6600   13.0776   23.7592 H   0  0  0  0  0  0  0  0  0  0  0  0
    1.7360   14.3049   24.5589 H   0  0  0  0  0  0  0  0  0  0  0  0
    7.6679   11.7965   23.3960 C   0  0  0  0  0  0  0  0  0  0  0  0
    5.2203    8.9054   23.9297 C   0  0  0  0  0  0  0  0  0  0  0  0
    5.7399   10.1780   23.6547 C   0  0  0  0  0  0  0  0  0  0  0  0
    7.1195   10.3984   23.5716 C   0  0  0  0  0  0  0  0  0  0  0  0
    7.9902    9.3103   23.7111 C   0  0  0  0  0  0  0  0  0  0  0  0
    7.4966    8.0216   23.9420 C   0  0  0  0  0  0  0  0  0  0  0  0
    6.1021    7.8109   24.0437 C   0  0  0  0  0  0  0  0  0  0  0  0
    3.1684    9.6022   24.9448 C   0  0  0  0  0  0  0  0  0  0  0  0
    3.8803    8.6848   24.1239 O   0  0  0  0  0  0  0  0  0  0  0  0
    5.7310    6.5162   24.3326 O   0  0  0  0  0  0  0  0  0  0  0  0
    5.1649    5.7500   23.2781 C   0  0  0  0  0  0  0  0  0  0  0  0
    8.2939    6.9104   24.0917 O   0  0  0  0  0  0  0  0  0  0  0  0
    8.9563    6.4125   22.9366 C   0  0  0  0  0  0  0  0  0  0  0  0
    8.5519   14.4383   24.8491 C   0  0  0  0  0  0  0  0  0  0  0  0
    9.0057   14.4633   26.3124 C   0  0  0  0  0  0  0  0  0  0  0  0
   10.1299   15.4670   26.5591 C   0  0  0  0  0  0  0  0  0  0  0  0
   11.4479   14.7437   26.8000 C   0  0  0  0  0  0  0  0  0  0  0  0
 20 21  1  0  0  0
 21 14  1  0  0  0
 14 15  1  0  0  0
 14 19  2  0  0  0
 15 16  2  0  0  0
 16 17  1  0  0  0
 16 13  1  0  0  0
 17 18  2  0  0  0
 18 19  1  0  0  0
 18 24  1  0  0  0
 19 22  1  0  0  0
 22 23  1  0  0  0
 24 25  1  0  0  0
 13  1  1  0  0  0
  1  2  2  0  0  0
  1 10  1  0  0  0
  2  3  1  0  0  0
  3  4  1  0  0  0
  3  9  2  0  0  0
  4  5  1  0  0  0
  4  6  2  0  0  0
  5 11  1  0  0  0
  5 12  1  0  0  0
  6  7  1  0  0  0
  7  8  2  0  0  0
  8  9  1  0  0  0
  9 10  1  0  0  0
 10 26  1  0  0  0
 26 27  1  0  0  0
 27 28  1  0  0  0
 28 29  1  0  0  0
M  END
> <minimizedAffinity>
-8.89971

$$$$
