# created with PyMOL 2.5.0
@<TRIPOS>MOLECULE
data/HSP90/cocry_dataset/1uy6_PU3_LIG.pdb
52 54 1                 
SMALL
USER_CHARGES
@<TRIPOS>ATOM
1	 H01	5.078	16.783	26.253	 H	1	UNK0	0.000	
2	 H12	-1.708	10.419	23.754	 H	1	UNK0	0.000	
3	 H04	4.797	10.002	23.942	 H	1	UNK0	0.000	
4	 H03	9.218	15.567	24.848	 H	1	UNK0	0.000	
5	 H02	3.986	15.499	25.783	 H	1	UNK0	0.000	
6	 H11	-2.865	11.514	24.547	 H	1	UNK0	0.000	
7	 H09	0.803	12.774	21.132	 H	1	UNK0	0.000	
8	 H08	-0.639	13.816	21.194	 H	1	UNK0	0.000	
9	 H15	-0.096	8.121	27.201	 H	1	UNK0	0.000	
10	 H07	3.161	9.709	25.564	 H	1	UNK0	0.000	
11	 H05	4.408	10.733	22.337	 H	1	UNK0	0.000	
12	 H06	2.395	12.299	22.219	 H	1	UNK0	0.000	
13	 H23	8.705	8.059	25.111	 H	1	UNK0	0.000	
14	 H14	1.675	8.278	27.264	 H	1	UNK0	0.000	
15	 H18	6.884	10.717	22.119	 H	1	UNK0	0.000	
16	 H17	8.309	11.783	22.525	 H	1	UNK0	0.000	
17	 H16	0.855	8.088	25.697	 H	1	UNK0	0.000	
18	 H19	7.601	10.225	24.788	 H	1	UNK0	0.000	
19	 H22	6.730	8.670	22.943	 H	1	UNK0	0.000	
20	 H21	8.447	8.479	22.485	 H	1	UNK0	0.000	
21	 H20	9.138	10.259	23.848	 H	1	UNK0	0.000	
22	 H10	-0.816	12.047	21.272	 H	1	UNK0	0.000	
23	 H13	-2.349	10.021	25.367	 H	1	UNK0	0.000	
24	 H25	8.277	6.747	23.987	 H	1	UNK0	0.000	
25	 H24	7.007	7.552	24.940	 H	1	UNK0	0.000	
26	   C	5.224	12.054	23.778	C.2	1	UNK0	0.000	
27	   N	4.752	13.132	24.388	N.2	1	UNK0	0.000	
28	   C	5.836	13.950	24.604	C.2	1	UNK0	0.000	
29	   C	5.979	15.195	25.238	C.2	1	UNK0	0.000	
30	   N	4.917	15.889	25.810	N.pl3	1	UNK0	0.000	
31	   N	7.206	15.759	25.299	N.2	1	UNK0	0.000	
32	   C	8.241	15.091	24.755	C.2	1	UNK0	0.000	
33	   N	8.221	13.910	24.111	N.2	1	UNK0	0.000	
34	   C	6.989	13.382	24.082	C.2	1	UNK0	0.000	
35	   N	6.594	12.170	23.566	N.pl3	1	UNK0	0.000	
36	   C	4.382	10.864	23.419	C.3	1	UNK0	0.000	
37	   C	0.753	12.060	23.596	C.2	1	UNK0	0.000	
38	   C	2.059	11.829	23.143	C.2	1	UNK0	0.000	
39	   C	2.941	11.006	23.853	C.2	1	UNK0	0.000	
40	   C	2.485	10.359	25.009	C.2	1	UNK0	0.000	
41	   C	1.172	10.537	25.459	C.2	1	UNK0	0.000	
42	   C	0.293	11.385	24.746	C.2	1	UNK0	0.000	
43	   C	-0.192	12.892	21.562	C.3	1	UNK0	0.000	
44	   O	-0.093	12.946	22.979	O.3	1	UNK0	0.000	
45	   O	-0.954	11.535	25.312	O.3	1	UNK0	0.000	
46	   C	-2.031	10.831	24.710	C.3	1	UNK0	0.000	
47	   O	0.660	9.936	26.585	O.3	1	UNK0	0.000	
48	   C	0.780	8.524	26.693	C.3	1	UNK0	0.000	
49	   C	7.462	11.210	22.901	C.3	1	UNK0	0.000	
50	   C	8.058	10.124	23.804	C.3	1	UNK0	0.000	
51	   C	7.760	8.714	23.298	C.3	1	UNK0	0.000	
52	   C	7.951	7.695	24.413	C.3	1	UNK0	0.000	
@<TRIPOS>BOND
1 26 27 2
2 26 35 1
3 27 28 1
4 28 29 1
5 28 34 2
6 29 30 1
7 29 31 2
8 1 30 1
9 5 30 1
10 31 32 1
11 4 32 1
12 32 33 2
13 33 34 1
14 34 35 1
15 35 49 1
16 3 36 1
17 11 36 1
18 26 36 1
19 37 38 1
20 37 42 2
21 12 38 1
22 38 39 2
23 36 39 1
24 39 40 1
25 10 40 1
26 40 41 2
27 41 42 1
28 41 47 1
29 42 45 1
30 7 43 1
31 8 43 1
32 22 43 1
33 43 44 1
34 37 44 1
35 45 46 1
36 2 46 1
37 6 46 1
38 23 46 1
39 47 48 1
40 9 48 1
41 14 48 1
42 17 48 1
43 15 49 1
44 16 49 1
45 49 50 1
46 18 50 1
47 21 50 1
48 50 51 1
49 19 51 1
50 20 51 1
51 51 52 1
52 13 52 1
53 24 52 1
54 25 52 1
@<TRIPOS>SUBSTRUCTURE
1	UNK0	1	GROUP	1 ****	UNK
