data/HSP90/cocry_dataset/1uy6_PU3_LIG.pdb
 OpenBabel03092321123D

 29 31  0  0  0  0  0  0  0  0999 V2000
    6.7643   12.8562   23.9585 C   0  0  0  0  0  0  0  0  0  0  0  0
    5.4418   12.7931   23.9162 N   0  0  0  0  0  0  0  0  0  0  0  0
    4.9883   13.9015   24.5938 C   0  0  0  0  0  0  0  0  0  0  0  0
    3.7008   14.3580   24.9200 C   0  0  0  0  0  0  0  0  0  0  0  0
    2.5365   13.6880   24.5580 N   0  0  0  0  0  0  0  0  0  0  0  0
    3.5746   15.5087   25.6173 N   0  0  0  0  0  0  0  0  0  0  0  0
    4.6964   16.1609   25.9791 C   0  0  0  0  0  0  0  0  0  0  0  0
    5.9718   15.8301   25.7092 N   0  0  0  0  0  0  0  0  0  0  0  0
    6.0519   14.6795   25.0249 C   0  0  0  0  0  0  0  0  0  0  0  0
    7.1819   14.0032   24.6257 N   0  0  0  0  0  0  0  0  0  0  0  0
    2.6600   13.0776   23.7592 H   0  0  0  0  0  0  0  0  0  0  0  0
    1.7360   14.3049   24.5589 H   0  0  0  0  0  0  0  0  0  0  0  0
    7.6679   11.7965   23.3960 C   0  0  0  0  0  0  0  0  0  0  0  0
    5.2203    8.9054   23.9297 C   0  0  0  0  0  0  0  0  0  0  0  0
    5.7399   10.1780   23.6547 C   0  0  0  0  0  0  0  0  0  0  0  0
    7.1195   10.3984   23.5716 C   0  0  0  0  0  0  0  0  0  0  0  0
    7.9902    9.3103   23.7111 C   0  0  0  0  0  0  0  0  0  0  0  0
    7.4966    8.0216   23.9420 C   0  0  0  0  0  0  0  0  0  0  0  0
    6.1021    7.8109   24.0437 C   0  0  0  0  0  0  0  0  0  0  0  0
    3.1684    9.6022   24.9448 C   0  0  0  0  0  0  0  0  0  0  0  0
    3.8803    8.6848   24.1239 O   0  0  0  0  0  0  0  0  0  0  0  0
    5.7310    6.5162   24.3326 O   0  0  0  0  0  0  0  0  0  0  0  0
    5.1649    5.7500   23.2781 C   0  0  0  0  0  0  0  0  0  0  0  0
    8.2939    6.9104   24.0917 O   0  0  0  0  0  0  0  0  0  0  0  0
    8.9563    6.4125   22.9366 C   0  0  0  0  0  0  0  0  0  0  0  0
    8.5519   14.4383   24.8491 C   0  0  0  0  0  0  0  0  0  0  0  0
    9.0057   14.4633   26.3124 C   0  0  0  0  0  0  0  0  0  0  0  0
   10.1299   15.4670   26.5591 C   0  0  0  0  0  0  0  0  0  0  0  0
   11.4479   14.7437   26.8000 C   0  0  0  0  0  0  0  0  0  0  0  0
  1  2  2  0  0  0  0
  1 10  1  0  0  0  0
  2  3  1  0  0  0  0
  3  4  1  0  0  0  0
  3  9  2  0  0  0  0
  4  5  1  0  0  0  0
  4  6  2  0  0  0  0
  5 11  1  0  0  0  0
  5 12  1  0  0  0  0
  6  7  1  0  0  0  0
  7  8  2  0  0  0  0
  8  9  1  0  0  0  0
  9 10  1  0  0  0  0
 10 26  1  0  0  0  0
 13  1  1  0  0  0  0
 14 15  1  0  0  0  0
 14 19  2  0  0  0  0
 15 16  2  0  0  0  0
 16 17  1  0  0  0  0
 16 13  1  0  0  0  0
 17 18  2  0  0  0  0
 18 19  1  0  0  0  0
 18 24  1  0  0  0  0
 19 22  1  0  0  0  0
 20 21  1  0  0  0  0
 21 14  1  0  0  0  0
 22 23  1  0  0  0  0
 24 25  1  0  0  0  0
 26 27  1  0  0  0  0
 27 28  1  0  0  0  0
 28 29  1  0  0  0  0
M  END
>  <minimizedAffinity>
-8.89971

$$$$
