# created with PyMOL 2.5.0
@<TRIPOS>MOLECULE
data/HSP90/cocry_dataset/1uy6_PU3_LIG.pdb
52 54 1                 
SMALL
USER_CHARGES
@<TRIPOS>ATOM
1	   C	5.224	12.054	23.778	C.2	1	UNK0	0.000	
2	   N	4.752	13.132	24.388	N.2	1	UNK0	0.000	
3	   C	5.836	13.950	24.604	C.2	1	UNK0	0.000	
4	   C	5.979	15.195	25.238	C.2	1	UNK0	0.000	
5	   N	4.917	15.889	25.810	N.pl3	1	UNK0	0.000	
6	   N	7.206	15.759	25.299	N.2	1	UNK0	0.000	
7	   C	8.241	15.091	24.755	C.2	1	UNK0	0.000	
8	   N	8.221	13.910	24.111	N.2	1	UNK0	0.000	
9	   C	6.989	13.382	24.082	C.2	1	UNK0	0.000	
10	   N	6.594	12.170	23.566	N.pl3	1	UNK0	0.000	
11	   C	4.382	10.864	23.419	C.3	1	UNK0	0.000	
12	   C	0.753	12.060	23.596	C.2	1	UNK0	0.000	
13	   C	2.059	11.829	23.143	C.2	1	UNK0	0.000	
14	   C	2.941	11.006	23.853	C.2	1	UNK0	0.000	
15	   C	2.485	10.359	25.009	C.2	1	UNK0	0.000	
16	   C	1.172	10.537	25.459	C.2	1	UNK0	0.000	
17	   C	0.293	11.385	24.746	C.2	1	UNK0	0.000	
18	   C	-0.192	12.892	21.562	C.3	1	UNK0	0.000	
19	   O	-0.093	12.946	22.979	O.3	1	UNK0	0.000	
20	   O	-0.954	11.535	25.312	O.3	1	UNK0	0.000	
21	   C	-2.031	10.831	24.710	C.3	1	UNK0	0.000	
22	   O	0.660	9.936	26.585	O.3	1	UNK0	0.000	
23	   C	0.780	8.524	26.693	C.3	1	UNK0	0.000	
24	   C	7.462	11.210	22.901	C.3	1	UNK0	0.000	
25	   C	8.058	10.124	23.804	C.3	1	UNK0	0.000	
26	   C	7.760	8.714	23.298	C.3	1	UNK0	0.000	
27	   C	7.951	7.695	24.413	C.3	1	UNK0	0.000	
28	 H01	5.078	16.783	26.253	 H	1	UNK0	0.000	
29	 H02	3.986	15.499	25.783	 H	1	UNK0	0.000	
30	 H03	9.218	15.567	24.848	 H	1	UNK0	0.000	
31	 H04	4.388	10.777	22.332	 H	1	UNK0	0.000	
32	 H05	4.805	9.981	23.898	 H	1	UNK0	0.000	
33	 H06	2.395	12.299	22.219	 H	1	UNK0	0.000	
34	 H07	3.161	9.709	25.564	 H	1	UNK0	0.000	
35	 H08	-0.639	13.816	21.194	 H	1	UNK0	0.000	
36	 H09	0.803	12.774	21.132	 H	1	UNK0	0.000	
37	 H10	-0.816	12.047	21.272	 H	1	UNK0	0.000	
38	 H11	-2.865	11.514	24.547	 H	1	UNK0	0.000	
39	 H12	-1.708	10.419	23.754	 H	1	UNK0	0.000	
40	 H13	-2.349	10.021	25.367	 H	1	UNK0	0.000	
41	 H14	1.675	8.278	27.264	 H	1	UNK0	0.000	
42	 H15	-0.096	8.121	27.201	 H	1	UNK0	0.000	
43	 H16	0.855	8.088	25.697	 H	1	UNK0	0.000	
44	 H17	8.309	11.783	22.525	 H	1	UNK0	0.000	
45	 H18	6.884	10.717	22.119	 H	1	UNK0	0.000	
46	 H19	7.601	10.225	24.788	 H	1	UNK0	0.000	
47	 H20	9.138	10.259	23.848	 H	1	UNK0	0.000	
48	 H21	8.447	8.479	22.485	 H	1	UNK0	0.000	
49	 H22	6.730	8.670	22.943	 H	1	UNK0	0.000	
50	 H23	8.705	8.059	25.111	 H	1	UNK0	0.000	
51	 H24	7.007	7.552	24.940	 H	1	UNK0	0.000	
52	 H25	8.277	6.747	23.987	 H	1	UNK0	0.000	
@<TRIPOS>BOND
1 18 19 1
2 12 19 1
3 12 13 1
4 12 17 2
5 13 14 2
6 14 15 1
7 11 14 1
8 15 16 2
9 16 17 1
10 16 22 1
11 17 20 1
12 20 21 1
13 22 23 1
14 1 11 1
15 1 2 2
16 1 10 1
17 2 3 1
18 3 4 1
19 3 9 2
20 4 5 1
21 4 6 2
22 6 7 1
23 7 8 2
24 8 9 1
25 9 10 1
26 10 24 1
27 24 25 1
28 25 26 1
29 26 27 1
30 5 28 1
31 5 29 1
32 7 30 1
33 11 31 1
34 11 32 1
35 13 33 1
36 15 34 1
37 18 35 1
38 18 36 1
39 18 37 1
40 21 38 1
41 21 39 1
42 21 40 1
43 23 41 1
44 23 42 1
45 23 43 1
46 24 44 1
47 24 45 1
48 25 46 1
49 25 47 1
50 26 48 1
51 26 49 1
52 27 50 1
53 27 51 1
54 27 52 1
@<TRIPOS>SUBSTRUCTURE
1	UNK0	1	GROUP	1 ****	UNK
