data/HSP90/cocry_dataset/1uy6_PU3_LIG.pdb
 OpenBabel03092321123D

 29 31  0  0  0  0  0  0  0  0999 V2000
    5.2241   12.0545   23.7783 C   0  0  0  0  0  0  0  0  0  0  0  0
    4.7517   13.1317   24.3876 N   0  0  0  0  0  0  0  0  0  0  0  0
    5.8364   13.9503   24.6038 C   0  0  0  0  0  0  0  0  0  0  0  0
    5.9790   15.1951   25.2384 C   0  0  0  0  0  0  0  0  0  0  0  0
    4.9174   15.8891   25.8101 N   0  0  0  0  0  0  0  0  0  0  0  0
    7.2057   15.7590   25.2987 N   0  0  0  0  0  0  0  0  0  0  0  0
    8.2415   15.0912   24.7549 C   0  0  0  0  0  0  0  0  0  0  0  0
    8.2210   13.9105   24.1110 N   0  0  0  0  0  0  0  0  0  0  0  0
    6.9886   13.3825   24.0819 C   0  0  0  0  0  0  0  0  0  0  0  0
    6.5940   12.1695   23.5656 N   0  0  0  0  0  0  0  0  0  0  0  0
    4.0174   15.6268   25.4265 H   0  0  0  0  0  0  0  0  0  0  0  0
    5.1213   16.8749   25.8988 H   0  0  0  0  0  0  0  0  0  0  0  0
    4.3824   10.8637   23.4186 C   0  0  0  0  0  0  0  0  0  0  0  0
    0.7531   12.0598   23.5964 C   0  0  0  0  0  0  0  0  0  0  0  0
    2.0594   11.8287   23.1432 C   0  0  0  0  0  0  0  0  0  0  0  0
    2.9412   11.0059   23.8533 C   0  0  0  0  0  0  0  0  0  0  0  0
    2.4846   10.3592   25.0086 C   0  0  0  0  0  0  0  0  0  0  0  0
    1.1718   10.5371   25.4589 C   0  0  0  0  0  0  0  0  0  0  0  0
    0.2932   11.3853   24.7462 C   0  0  0  0  0  0  0  0  0  0  0  0
   -0.1918   12.8923   21.5617 C   0  0  0  0  0  0  0  0  0  0  0  0
   -0.0931   12.9458   22.9793 O   0  0  0  0  0  0  0  0  0  0  0  0
   -0.9538   11.5352   25.3119 O   0  0  0  0  0  0  0  0  0  0  0  0
   -2.0313   10.8309   24.7100 C   0  0  0  0  0  0  0  0  0  0  0  0
    0.6595    9.9360   26.5854 O   0  0  0  0  0  0  0  0  0  0  0  0
    0.7799    8.5236   26.6930 C   0  0  0  0  0  0  0  0  0  0  0  0
    7.4622   11.2097   22.9012 C   0  0  0  0  0  0  0  0  0  0  0  0
    8.0577   10.1240   23.8037 C   0  0  0  0  0  0  0  0  0  0  0  0
    7.7597    8.7143   23.2975 C   0  0  0  0  0  0  0  0  0  0  0  0
    7.9505    7.6954   24.4127 C   0  0  0  0  0  0  0  0  0  0  0  0
  1  2  2  0  0  0  0
  1 10  1  0  0  0  0
  2  3  1  0  0  0  0
  3  4  1  0  0  0  0
  3  9  2  0  0  0  0
  4  5  1  0  0  0  0
  4  6  2  0  0  0  0
  5 11  1  0  0  0  0
  5 12  1  0  0  0  0
  6  7  1  0  0  0  0
  7  8  2  0  0  0  0
  8  9  1  0  0  0  0
  9 10  1  0  0  0  0
 10 26  1  0  0  0  0
 13  1  1  0  0  0  0
 14 15  1  0  0  0  0
 14 19  2  0  0  0  0
 15 16  2  0  0  0  0
 16 17  1  0  0  0  0
 16 13  1  0  0  0  0
 17 18  2  0  0  0  0
 18 19  1  0  0  0  0
 18 24  1  0  0  0  0
 19 22  1  0  0  0  0
 20 21  1  0  0  0  0
 21 14  1  0  0  0  0
 22 23  1  0  0  0  0
 24 25  1  0  0  0  0
 26 27  1  0  0  0  0
 27 28  1  0  0  0  0
 28 29  1  0  0  0  0
M  END
>  <minimizedAffinity>
-9.32736

$$$$
