# created with PyMOL 2.5.0
@<TRIPOS>MOLECULE
data/HSP90/cocry_dataset/1uy7_PU4_LIG.pdb
44 46 1                 
SMALL
USER_CHARGES
@<TRIPOS>ATOM
1	 H10	8.152	8.367	25.270	 H	1	UNK0	0.000	
2	 H02	4.892	16.885	26.124	 H	1	UNK0	0.000	
3	 H04	8.110	11.974	22.405	 H	1	UNK0	0.000	
4	 H01	9.034	15.676	24.719	 H	1	UNK0	0.000	
5	 H06	7.619	10.362	24.726	 H	1	UNK0	0.000	
6	 H05	6.771	10.791	22.099	 H	1	UNK0	0.000	
7	 H09	8.378	7.018	24.131	 H	1	UNK0	0.000	
8	 H08	6.743	7.633	24.469	 H	1	UNK0	0.000	
9	 H03	3.820	15.556	25.745	 H	1	UNK0	0.000	
10	 H07	9.126	10.581	23.773	 H	1	UNK0	0.000	
11	 H13	4.452	10.076	24.219	 H	1	UNK0	0.000	
12	 H12	8.804	8.647	22.612	 H	1	UNK0	0.000	
13	 H11	7.027	8.845	22.586	 H	1	UNK0	0.000	
14	 H14	4.445	10.582	22.472	 H	1	UNK0	0.000	
15	 H18	2.366	9.480	24.967	 H	1	UNK0	0.000	
16	 H17	-0.034	10.018	25.271	 H	1	UNK0	0.000	
17	 H16	0.309	13.234	22.448	 H	1	UNK0	0.000	
18	 H19	-3.014	10.834	24.324	 H	1	UNK0	0.000	
19	 H15	2.711	12.696	22.133	 H	1	UNK0	0.000	
20	 H21	-2.195	11.042	25.891	 H	1	UNK0	0.000	
21	 H20	-1.501	9.959	24.660	 H	1	UNK0	0.000	
22	   N	6.438	12.209	23.575	N.pl3	1	UNK0	0.000	
23	   C	6.836	13.416	24.102	C.2	1	UNK0	0.000	
24	   N	8.064	13.963	24.082	N.2	1	UNK0	0.000	
25	   C	8.068	15.173	24.673	C.2	1	UNK0	0.000	
26	   N	7.030	15.843	25.217	N.2	1	UNK0	0.000	
27	   C	5.816	15.248	25.216	C.2	1	UNK0	0.000	
28	   C	5.689	13.970	24.647	C.2	1	UNK0	0.000	
29	   N	4.620	13.122	24.482	N.2	1	UNK0	0.000	
30	   C	5.089	12.046	23.868	C.2	1	UNK0	0.000	
31	   N	4.745	15.962	25.743	N.pl3	1	UNK0	0.000	
32	   C	7.345	11.337	22.848	C.3	1	UNK0	0.000	
33	   C	8.068	10.324	23.734	C.3	1	UNK0	0.000	
34	   C	7.790	7.909	24.349	C.3	1	UNK0	0.000	
35	   C	7.924	8.900	23.203	C.3	1	UNK0	0.000	
36	   C	4.221	10.864	23.501	C.3	1	UNK0	0.000	
37	   C	2.734	11.120	23.608	C.2	1	UNK0	0.000	
38	   C	2.123	12.135	22.859	C.2	1	UNK0	0.000	
39	   C	0.767	12.436	23.032	C.2	1	UNK0	0.000	
40	   C	0.001	11.717	23.948	C.2	1	UNK0	0.000	
41	   C	0.578	10.634	24.613	C.2	1	UNK0	0.000	
42	   C	1.932	10.333	24.445	C.2	1	UNK0	0.000	
43	   O	-1.299	11.976	24.287	O.3	1	UNK0	0.000	
44	   C	-2.045	10.889	24.822	C.3	1	UNK0	0.000	
@<TRIPOS>BOND
1 22 23 1
2 22 30 1
3 23 24 1
4 23 28 2
5 24 25 2
6 4 25 1
7 25 26 1
8 26 27 2
9 27 28 1
10 27 31 1
11 28 29 1
12 29 30 2
13 30 36 1
14 2 31 1
15 9 31 1
16 3 32 1
17 6 32 1
18 22 32 1
19 5 33 1
20 10 33 1
21 32 33 1
22 1 34 1
23 7 34 1
24 8 34 1
25 34 35 1
26 12 35 1
27 13 35 1
28 33 35 1
29 11 36 1
30 14 36 1
31 36 37 1
32 37 38 1
33 37 42 2
34 19 38 1
35 38 39 2
36 17 39 1
37 39 40 1
38 40 41 2
39 40 43 1
40 16 41 1
41 41 42 1
42 15 42 1
43 43 44 1
44 18 44 1
45 20 44 1
46 21 44 1
@<TRIPOS>SUBSTRUCTURE
1	UNK0	1	GROUP	1 ****	UNK
