data/HSP90/cocry_dataset/1uy7_PU4_LIG.pdb
 OpenBabel03092321123D

 25 27  0  0  0  0  0  0  0  0999 V2000
    6.4381   12.2094   23.5749 N   0  0  0  0  0  0  0  0  0  0  0  0
    6.8359   13.4160   24.1021 C   0  0  0  0  0  0  0  0  0  0  0  0
    8.0641   13.9634   24.0816 N   0  0  0  0  0  0  0  0  0  0  0  0
    8.0684   15.1733   24.6733 C   0  0  0  0  0  0  0  0  0  0  0  0
    7.0297   15.8427   25.2171 N   0  0  0  0  0  0  0  0  0  0  0  0
    5.8158   15.2483   25.2156 C   0  0  0  0  0  0  0  0  0  0  0  0
    5.6888   13.9700   24.6474 C   0  0  0  0  0  0  0  0  0  0  0  0
    4.6198   13.1217   24.4821 N   0  0  0  0  0  0  0  0  0  0  0  0
    5.0894   12.0456   23.8675 C   0  0  0  0  0  0  0  0  0  0  0  0
    4.7446   15.9616   25.7430 N   0  0  0  0  0  0  0  0  0  0  0  0
    4.9315   16.9545   25.7363 H   0  0  0  0  0  0  0  0  0  0  0  0
    3.8514   15.6546   25.3711 H   0  0  0  0  0  0  0  0  0  0  0  0
    7.3449   11.3369   22.8483 C   0  0  0  0  0  0  0  0  0  0  0  0
    8.0680   10.3240   23.7338 C   0  0  0  0  0  0  0  0  0  0  0  0
    7.7901    7.9091   24.3494 C   0  0  0  0  0  0  0  0  0  0  0  0
    7.9242    8.8996   23.2028 C   0  0  0  0  0  0  0  0  0  0  0  0
    4.2210   10.8638   23.5012 C   0  0  0  0  0  0  0  0  0  0  0  0
    2.7339   11.1201   23.6082 C   0  0  0  0  0  0  0  0  0  0  0  0
    2.1232   12.1346   22.8591 C   0  0  0  0  0  0  0  0  0  0  0  0
    0.7673   12.4358   23.0317 C   0  0  0  0  0  0  0  0  0  0  0  0
    0.0007   11.7175   23.9482 C   0  0  0  0  0  0  0  0  0  0  0  0
    0.5776   10.6345   24.6134 C   0  0  0  0  0  0  0  0  0  0  0  0
    1.9318   10.3329   24.4447 C   0  0  0  0  0  0  0  0  0  0  0  0
   -1.2989   11.9758   24.2865 O   0  0  0  0  0  0  0  0  0  0  0  0
   -2.0454   10.8890   24.8218 C   0  0  0  0  0  0  0  0  0  0  0  0
  1  2  1  0  0  0  0
  1  9  1  0  0  0  0
  2  3  1  0  0  0  0
  2  7  2  0  0  0  0
  3  4  2  0  0  0  0
  4  5  1  0  0  0  0
  5  6  2  0  0  0  0
  6  7  1  0  0  0  0
  6 10  1  0  0  0  0
  7  8  1  0  0  0  0
  8  9  2  0  0  0  0
  9 17  1  0  0  0  0
 10 11  1  0  0  0  0
 10 12  1  0  0  0  0
 13  1  1  0  0  0  0
 14 13  1  0  0  0  0
 15 16  1  0  0  0  0
 16 14  1  0  0  0  0
 17 18  1  0  0  0  0
 18 19  1  0  0  0  0
 18 23  2  0  0  0  0
 19 20  2  0  0  0  0
 20 21  1  0  0  0  0
 21 22  2  0  0  0  0
 21 24  1  0  0  0  0
 22 23  1  0  0  0  0
 24 25  1  0  0  0  0
M  END
>  <minimizedAffinity>
-9.27867

$$$$
