data/HSP90/cocry_dataset/1uy8_PU5_LIG.pdb
 OpenBabel03092321123D

 25 27  0  0  0  0  0  0  0  0999 V2000
    7.1374   13.9036   24.5272 N   0  0  0  0  0  0  0  0  0  0  0  0
    6.0214   14.5619   24.9908 C   0  0  0  0  0  0  0  0  0  0  0  0
    5.9748   15.7132   25.6831 N   0  0  0  0  0  0  0  0  0  0  0  0
    4.7051   16.0721   25.9429 C   0  0  0  0  0  0  0  0  0  0  0  0
    3.5668   15.4417   25.5841 N   0  0  0  0  0  0  0  0  0  0  0  0
    3.6683   14.2796   24.8983 C   0  0  0  0  0  0  0  0  0  0  0  0
    4.9487   13.7997   24.5727 C   0  0  0  0  0  0  0  0  0  0  0  0
    5.3793   12.6928   23.8754 N   0  0  0  0  0  0  0  0  0  0  0  0
    6.7119   12.7515   23.8833 C   0  0  0  0  0  0  0  0  0  0  0  0
    2.4910   13.6444   24.5228 N   0  0  0  0  0  0  0  0  0  0  0  0
    1.7168   14.2962   24.4895 H   0  0  0  0  0  0  0  0  0  0  0  0
    2.6160   13.0280   23.7259 H   0  0  0  0  0  0  0  0  0  0  0  0
    8.4804   14.4115   24.7225 C   0  0  0  0  0  0  0  0  0  0  0  0
    9.0173   14.3073   26.1505 C   0  0  0  0  0  0  0  0  0  0  0  0
   11.4472   14.7695   26.6121 C   0  0  0  0  0  0  0  0  0  0  0  0
   10.0591   15.3763   26.4894 C   0  0  0  0  0  0  0  0  0  0  0  0
    7.5865   11.6959   23.2641 C   0  0  0  0  0  0  0  0  0  0  0  0
    7.1809   10.2907   23.6473 C   0  0  0  0  0  0  0  0  0  0  0  0
    8.1510    9.3040   23.8695 C   0  0  0  0  0  0  0  0  0  0  0  0
    7.7734    7.9765   24.0665 C   0  0  0  0  0  0  0  0  0  0  0  0
    6.4224    7.6227   24.0729 C   0  0  0  0  0  0  0  0  0  0  0  0
    5.4424    8.6060   23.9422 C   0  0  0  0  0  0  0  0  0  0  0  0
    5.8271    9.9368   23.7461 C   0  0  0  0  0  0  0  0  0  0  0  0
    4.0897    8.4013   23.9683 O   0  0  0  0  0  0  0  0  0  0  0  0
    3.2696    9.5604   24.0562 C   0  0  0  0  0  0  0  0  0  0  0  0
  1  2  1  0  0  0  0
  1  9  1  0  0  0  0
  2  3  1  0  0  0  0
  2  7  2  0  0  0  0
  3  4  2  0  0  0  0
  4  5  1  0  0  0  0
  5  6  2  0  0  0  0
  6  7  1  0  0  0  0
  6 10  1  0  0  0  0
  7  8  1  0  0  0  0
  8  9  2  0  0  0  0
  9 17  1  0  0  0  0
 10 11  1  0  0  0  0
 10 12  1  0  0  0  0
 13  1  1  0  0  0  0
 14 13  1  0  0  0  0
 15 16  1  0  0  0  0
 16 14  1  0  0  0  0
 17 18  1  0  0  0  0
 18 19  1  0  0  0  0
 18 23  2  0  0  0  0
 19 20  2  0  0  0  0
 20 21  1  0  0  0  0
 21 22  2  0  0  0  0
 22 23  1  0  0  0  0
 22 24  1  0  0  0  0
 24 25  1  0  0  0  0
M  END
>  <minimizedAffinity>
-9.92870

$$$$
