data/HSP90/cocry_dataset/1uy8_PU5_LIG.pdb
 OpenBabel03092321123D

 25 27  0  0  0  0  0  0  0  0999 V2000
    6.3130   12.1960   23.5764 N   0  0  0  0  0  0  0  0  0  0  0  0
    6.7899   13.3649   24.1242 C   0  0  0  0  0  0  0  0  0  0  0  0
    8.0574   13.8125   24.1298 N   0  0  0  0  0  0  0  0  0  0  0  0
    8.1459   15.0112   24.7331 C   0  0  0  0  0  0  0  0  0  0  0  0
    7.1550   15.7524   25.2722 N   0  0  0  0  0  0  0  0  0  0  0  0
    5.8981   15.2514   25.2515 C   0  0  0  0  0  0  0  0  0  0  0  0
    5.6822   13.9993   24.6504 C   0  0  0  0  0  0  0  0  0  0  0  0
    4.5466   13.2472   24.4462 N   0  0  0  0  0  0  0  0  0  0  0  0
    4.9493   12.1396   23.8215 C   0  0  0  0  0  0  0  0  0  0  0  0
    4.8829   16.0270   25.7978 N   0  0  0  0  0  0  0  0  0  0  0  0
    5.1393   17.0064   25.8171 H   0  0  0  0  0  0  0  0  0  0  0  0
    3.9680   15.7918   25.4263 H   0  0  0  0  0  0  0  0  0  0  0  0
    7.1667   11.2561   22.8783 C   0  0  0  0  0  0  0  0  0  0  0  0
    7.8628   10.2224   23.7646 C   0  0  0  0  0  0  0  0  0  0  0  0
    8.1724    7.7538   24.1400 C   0  0  0  0  0  0  0  0  0  0  0  0
    7.1958    8.8450   23.7336 C   0  0  0  0  0  0  0  0  0  0  0  0
    4.0180   11.0178   23.4515 C   0  0  0  0  0  0  0  0  0  0  0  0
    2.5810   11.2898   23.8351 C   0  0  0  0  0  0  0  0  0  0  0  0
    2.0496   10.7704   25.0234 C   0  0  0  0  0  0  0  0  0  0  0  0
    0.6876   10.8883   25.2968 C   0  0  0  0  0  0  0  0  0  0  0  0
   -0.1550   11.5511   24.4017 C   0  0  0  0  0  0  0  0  0  0  0  0
    0.3731   12.1505   23.2588 C   0  0  0  0  0  0  0  0  0  0  0  0
    1.7409   12.0301   22.9902 C   0  0  0  0  0  0  0  0  0  0  0  0
   -0.3317   12.8581   22.3234 O   0  0  0  0  0  0  0  0  0  0  0  0
   -1.7235   12.5799   22.2269 C   0  0  0  0  0  0  0  0  0  0  0  0
  1  2  1  0  0  0  0
  1  9  1  0  0  0  0
  2  3  1  0  0  0  0
  2  7  2  0  0  0  0
  3  4  2  0  0  0  0
  4  5  1  0  0  0  0
  5  6  2  0  0  0  0
  6  7  1  0  0  0  0
  6 10  1  0  0  0  0
  7  8  1  0  0  0  0
  8  9  2  0  0  0  0
  9 17  1  0  0  0  0
 10 11  1  0  0  0  0
 10 12  1  0  0  0  0
 13  1  1  0  0  0  0
 14 13  1  0  0  0  0
 15 16  1  0  0  0  0
 16 14  1  0  0  0  0
 17 18  1  0  0  0  0
 18 19  1  0  0  0  0
 18 23  2  0  0  0  0
 19 20  2  0  0  0  0
 20 21  1  0  0  0  0
 21 22  2  0  0  0  0
 22 23  1  0  0  0  0
 22 24  1  0  0  0  0
 24 25  1  0  0  0  0
M  END
>  <minimizedAffinity>
-9.83978

$$$$
