# created with PyMOL 2.5.0
@<TRIPOS>MOLECULE
data/HSP90/cocry_dataset/1uy8_PU5_LIG.pdb
44 46 1                 
SMALL
USER_CHARGES
@<TRIPOS>ATOM
1	 H10	11.790	14.442	25.630	 H	1	UNK0	0.000	
2	 H02	1.599	14.045	24.774	 H	1	UNK0	0.000	
3	 H04	8.436	15.476	24.495	 H	1	UNK0	0.000	
4	 H01	4.579	16.990	26.517	 H	1	UNK0	0.000	
5	 H06	9.511	13.339	26.238	 H	1	UNK0	0.000	
6	 H05	9.151	13.854	24.069	 H	1	UNK0	0.000	
7	 H09	11.413	13.915	27.288	 H	1	UNK0	0.000	
8	 H08	12.136	15.517	27.006	 H	1	UNK0	0.000	
9	 H03	2.528	12.782	23.999	 H	1	UNK0	0.000	
10	 H07	8.181	14.407	26.843	 H	1	UNK0	0.000	
11	 H13	8.599	11.854	23.635	 H	1	UNK0	0.000	
12	 H12	9.791	15.848	27.435	 H	1	UNK0	0.000	
13	 H11	10.073	16.112	25.685	 H	1	UNK0	0.000	
14	 H14	7.531	11.790	22.180	 H	1	UNK0	0.000	
15	 H18	5.063	10.710	23.669	 H	1	UNK0	0.000	
16	 H17	6.134	6.577	24.180	 H	1	UNK0	0.000	
17	 H16	8.536	7.212	24.216	 H	1	UNK0	0.000	
18	 H19	2.329	9.303	24.544	 H	1	UNK0	0.000	
19	 H15	9.206	9.576	23.888	 H	1	UNK0	0.000	
20	 H21	3.067	9.940	23.055	 H	1	UNK0	0.000	
21	 H20	3.783	10.326	24.638	 H	1	UNK0	0.000	
22	   N	7.137	13.904	24.527	N.pl3	1	UNK0	0.000	
23	   C	6.021	14.562	24.991	C.2	1	UNK0	0.000	
24	   N	5.975	15.713	25.683	N.2	1	UNK0	0.000	
25	   C	4.705	16.072	25.943	C.2	1	UNK0	0.000	
26	   N	3.567	15.442	25.584	N.2	1	UNK0	0.000	
27	   C	3.668	14.280	24.898	C.2	1	UNK0	0.000	
28	   C	4.949	13.800	24.573	C.2	1	UNK0	0.000	
29	   N	5.379	12.693	23.875	N.2	1	UNK0	0.000	
30	   C	6.712	12.752	23.883	C.2	1	UNK0	0.000	
31	   N	2.491	13.644	24.523	N.pl3	1	UNK0	0.000	
32	   C	8.480	14.411	24.722	C.3	1	UNK0	0.000	
33	   C	9.017	14.307	26.150	C.3	1	UNK0	0.000	
34	   C	11.447	14.769	26.612	C.3	1	UNK0	0.000	
35	   C	10.059	15.376	26.489	C.3	1	UNK0	0.000	
36	   C	7.587	11.696	23.264	C.3	1	UNK0	0.000	
37	   C	7.181	10.291	23.647	C.2	1	UNK0	0.000	
38	   C	8.151	9.304	23.869	C.2	1	UNK0	0.000	
39	   C	7.773	7.977	24.066	C.2	1	UNK0	0.000	
40	   C	6.422	7.623	24.073	C.2	1	UNK0	0.000	
41	   C	5.442	8.606	23.942	C.2	1	UNK0	0.000	
42	   C	5.827	9.937	23.746	C.2	1	UNK0	0.000	
43	   O	4.090	8.401	23.968	O.3	1	UNK0	0.000	
44	   C	3.270	9.560	24.056	C.3	1	UNK0	0.000	
@<TRIPOS>BOND
1 22 23 1
2 22 30 1
3 23 24 1
4 23 28 2
5 24 25 2
6 4 25 1
7 25 26 1
8 26 27 2
9 27 28 1
10 27 31 1
11 28 29 1
12 29 30 2
13 30 36 1
14 2 31 1
15 9 31 1
16 3 32 1
17 6 32 1
18 22 32 1
19 5 33 1
20 10 33 1
21 32 33 1
22 1 34 1
23 7 34 1
24 8 34 1
25 34 35 1
26 12 35 1
27 13 35 1
28 33 35 1
29 11 36 1
30 14 36 1
31 36 37 1
32 37 38 1
33 37 42 2
34 19 38 1
35 38 39 2
36 17 39 1
37 39 40 1
38 16 40 1
39 40 41 2
40 41 42 1
41 41 43 1
42 15 42 1
43 43 44 1
44 18 44 1
45 20 44 1
46 21 44 1
@<TRIPOS>SUBSTRUCTURE
1	UNK0	1	GROUP	1 ****	UNK
