# created with PyMOL 2.5.0
@<TRIPOS>MOLECULE
data/HSP90/cocry_dataset/1uy8_PU5_LIG.pdb
44 46 1                 
SMALL
USER_CHARGES
@<TRIPOS>ATOM
1	 H10	8.442	7.499	22.898	 H	1	UNK0	0.000	
2	 H02	5.105	16.979	26.210	 H	1	UNK0	0.000	
3	 H04	7.746	11.848	22.330	 H	1	UNK0	0.000	
4	 H01	9.078	15.471	24.619	 H	1	UNK0	0.000	
5	 H06	7.851	10.710	24.742	 H	1	UNK0	0.000	
6	 H05	6.354	10.675	22.224	 H	1	UNK0	0.000	
7	 H09	7.792	6.946	24.460	 H	1	UNK0	0.000	
8	 H08	9.085	8.168	24.416	 H	1	UNK0	0.000	
9	 H03	3.920	15.737	25.874	 H	1	UNK0	0.000	
10	 H07	8.792	10.153	23.300	 H	1	UNK0	0.000	
11	 H13	4.031	10.270	24.381	 H	1	UNK0	0.000	
12	 H12	6.490	8.742	23.015	 H	1	UNK0	0.000	
13	 H11	6.577	8.880	24.800	 H	1	UNK0	0.000	
14	 H14	4.119	10.641	22.616	 H	1	UNK0	0.000	
15	 H18	2.000	10.427	25.496	 H	1	UNK0	0.000	
16	 H17	-1.155	12.912	23.958	 H	1	UNK0	0.000	
17	 H16	0.202	13.362	21.925	 H	1	UNK0	0.000	
18	 H19	0.823	9.959	27.099	 H	1	UNK0	0.000	
19	 H15	2.487	12.423	21.717	 H	1	UNK0	0.000	
20	 H21	0.089	9.259	25.636	 H	1	UNK0	0.000	
21	 H20	-0.918	9.590	27.066	 H	1	UNK0	0.000	
22	   N	6.190	12.208	23.598	N.pl3	1	UNK0	0.000	
23	   C	6.693	13.386	24.102	C.2	1	UNK0	0.000	
24	   N	7.959	13.834	24.036	N.2	1	UNK0	0.000	
25	   C	8.076	15.042	24.615	C.2	1	UNK0	0.000	
26	   N	7.114	15.791	25.192	N.2	1	UNK0	0.000	
27	   C	5.858	15.290	25.244	C.2	1	UNK0	0.000	
28	   C	5.613	14.028	24.674	C.2	1	UNK0	0.000	
29	   N	4.469	13.272	24.541	N.2	1	UNK0	0.000	
30	   C	4.841	12.155	23.914	C.2	1	UNK0	0.000	
31	   N	4.871	16.073	25.829	N.pl3	1	UNK0	0.000	
32	   C	7.008	11.257	22.872	C.3	1	UNK0	0.000	
33	   C	7.803	10.282	23.741	C.3	1	UNK0	0.000	
34	   C	8.190	7.802	23.914	C.3	1	UNK0	0.000	
35	   C	7.146	8.906	23.870	C.3	1	UNK0	0.000	
36	   C	3.893	11.027	23.610	C.3	1	UNK0	0.000	
37	   C	2.441	11.448	23.645	C.2	1	UNK0	0.000	
38	   C	1.898	12.223	22.612	C.2	1	UNK0	0.000	
39	   C	0.608	12.741	22.723	C.2	1	UNK0	0.000	
40	   C	-0.165	12.467	23.854	C.2	1	UNK0	0.000	
41	   C	0.327	11.624	24.849	C.2	1	UNK0	0.000	
42	   C	1.622	11.106	24.732	C.2	1	UNK0	0.000	
43	   O	-0.337	11.245	25.984	O.3	1	UNK0	0.000	
44	   C	-0.070	9.937	26.475	C.3	1	UNK0	0.000	
@<TRIPOS>BOND
1 22 23 1
2 22 30 1
3 23 24 1
4 23 28 2
5 24 25 2
6 4 25 1
7 25 26 1
8 26 27 2
9 27 28 1
10 27 31 1
11 28 29 1
12 29 30 2
13 30 36 1
14 2 31 1
15 9 31 1
16 3 32 1
17 6 32 1
18 22 32 1
19 5 33 1
20 10 33 1
21 32 33 1
22 1 34 1
23 7 34 1
24 8 34 1
25 34 35 1
26 12 35 1
27 13 35 1
28 33 35 1
29 11 36 1
30 14 36 1
31 36 37 1
32 37 38 1
33 37 42 2
34 19 38 1
35 38 39 2
36 17 39 1
37 39 40 1
38 16 40 1
39 40 41 2
40 41 42 1
41 41 43 1
42 15 42 1
43 43 44 1
44 18 44 1
45 20 44 1
46 21 44 1
@<TRIPOS>SUBSTRUCTURE
1	UNK0	1	GROUP	1 ****	UNK
