data/HSP90/cocry_dataset/1uy8_PU5_LIG.pdb


 25 27  0  0  0  0  0  0  0  0999 V2000
    7.1374   13.9036   24.5272 N   0  0  0  0  0  0  0  0  0  0  0  0
    6.0214   14.5619   24.9908 C   0  0  0  0  0  0  0  0  0  0  0  0
    5.9748   15.7132   25.6831 N   0  0  0  0  0  0  0  0  0  0  0  0
    4.7051   16.0721   25.9429 C   0  0  0  0  0  0  0  0  0  0  0  0
    3.5668   15.4417   25.5841 N   0  0  0  0  0  0  0  0  0  0  0  0
    3.6683   14.2796   24.8983 C   0  0  0  0  0  0  0  0  0  0  0  0
    4.9487   13.7997   24.5727 C   0  0  0  0  0  0  0  0  0  0  0  0
    5.3793   12.6928   23.8754 N   0  0  0  0  0  0  0  0  0  0  0  0
    6.7119   12.7515   23.8833 C   0  0  0  0  0  0  0  0  0  0  0  0
    2.4910   13.6444   24.5228 N   0  0  0  0  0  0  0  0  0  0  0  0
    1.7168   14.2962   24.4895 H   0  0  0  0  0  0  0  0  0  0  0  0
    2.6160   13.0280   23.7259 H   0  0  0  0  0  0  0  0  0  0  0  0
    8.4804   14.4115   24.7225 C   0  0  0  0  0  0  0  0  0  0  0  0
    9.0173   14.3073   26.1505 C   0  0  0  0  0  0  0  0  0  0  0  0
   11.4472   14.7695   26.6121 C   0  0  0  0  0  0  0  0  0  0  0  0
   10.0591   15.3763   26.4894 C   0  0  0  0  0  0  0  0  0  0  0  0
    7.5865   11.6959   23.2641 C   0  0  0  0  0  0  0  0  0  0  0  0
    7.1809   10.2907   23.6473 C   0  0  0  0  0  0  0  0  0  0  0  0
    8.1510    9.3040   23.8695 C   0  0  0  0  0  0  0  0  0  0  0  0
    7.7734    7.9765   24.0665 C   0  0  0  0  0  0  0  0  0  0  0  0
    6.4224    7.6227   24.0729 C   0  0  0  0  0  0  0  0  0  0  0  0
    5.4424    8.6060   23.9422 C   0  0  0  0  0  0  0  0  0  0  0  0
    5.8271    9.9368   23.7461 C   0  0  0  0  0  0  0  0  0  0  0  0
    4.0897    8.4013   23.9683 O   0  0  0  0  0  0  0  0  0  0  0  0
    3.2696    9.5604   24.0562 C   0  0  0  0  0  0  0  0  0  0  0  0
 15 16  1  0  0  0
 16 14  1  0  0  0
 14 13  1  0  0  0
 13  1  1  0  0  0
  1  2  1  0  0  0
  1  9  1  0  0  0
  2  3  1  0  0  0
  2  7  2  0  0  0
  3  4  2  0  0  0
  4  5  1  0  0  0
  5  6  2  0  0  0
  6  7  1  0  0  0
  6 10  1  0  0  0
  7  8  1  0  0  0
  8  9  2  0  0  0
  9 17  1  0  0  0
 17 18  1  0  0  0
 18 19  1  0  0  0
 18 23  2  0  0  0
 19 20  2  0  0  0
 20 21  1  0  0  0
 21 22  2  0  0  0
 22 23  1  0  0  0
 22 24  1  0  0  0
 24 25  1  0  0  0
 10 11  1  0  0  0
 10 12  1  0  0  0
M  END
> <minimizedAffinity>
-9.92870

$$$$
data/HSP90/cocry_dataset/1uy8_PU5_LIG.pdb


 25 27  0  0  0  0  0  0  0  0999 V2000
    6.1901   12.2081   23.5983 N   0  0  0  0  0  0  0  0  0  0  0  0
    6.6930   13.3857   24.1023 C   0  0  0  0  0  0  0  0  0  0  0  0
    7.9586   13.8338   24.0360 N   0  0  0  0  0  0  0  0  0  0  0  0
    8.0765   15.0419   24.6150 C   0  0  0  0  0  0  0  0  0  0  0  0
    7.1136   15.7912   25.1923 N   0  0  0  0  0  0  0  0  0  0  0  0
    5.8579   15.2895   25.2439 C   0  0  0  0  0  0  0  0  0  0  0  0
    5.6130   14.0280   24.6745 C   0  0  0  0  0  0  0  0  0  0  0  0
    4.4693   13.2723   24.5406 N   0  0  0  0  0  0  0  0  0  0  0  0
    4.8409   12.1551   23.9137 C   0  0  0  0  0  0  0  0  0  0  0  0
    4.8711   16.0733   25.8291 N   0  0  0  0  0  0  0  0  0  0  0  0
    5.1270   17.0530   25.8198 H   0  0  0  0  0  0  0  0  0  0  0  0
    3.9386   15.8320   25.5087 H   0  0  0  0  0  0  0  0  0  0  0  0
    7.0081   11.2575   22.8723 C   0  0  0  0  0  0  0  0  0  0  0  0
    7.8034   10.2821   23.7410 C   0  0  0  0  0  0  0  0  0  0  0  0
    8.1897    7.8018   23.9139 C   0  0  0  0  0  0  0  0  0  0  0  0
    7.1460    8.9058   23.8702 C   0  0  0  0  0  0  0  0  0  0  0  0
    3.8931   11.0272   23.6096 C   0  0  0  0  0  0  0  0  0  0  0  0
    2.4412   11.4475   23.6451 C   0  0  0  0  0  0  0  0  0  0  0  0
    1.8978   12.2232   22.6122 C   0  0  0  0  0  0  0  0  0  0  0  0
    0.6080   12.7408   22.7234 C   0  0  0  0  0  0  0  0  0  0  0  0
   -0.1652   12.4665   23.8536 C   0  0  0  0  0  0  0  0  0  0  0  0
    0.3275   11.6236   24.8491 C   0  0  0  0  0  0  0  0  0  0  0  0
    1.6221   11.1060   24.7315 C   0  0  0  0  0  0  0  0  0  0  0  0
   -0.3370   11.2454   25.9839 O   0  0  0  0  0  0  0  0  0  0  0  0
   -0.0703    9.9370   26.4746 C   0  0  0  0  0  0  0  0  0  0  0  0
 15 16  1  0  0  0
 16 14  1  0  0  0
 14 13  1  0  0  0
 13  1  1  0  0  0
  1  2  1  0  0  0
  1  9  1  0  0  0
  2  3  1  0  0  0
  2  7  2  0  0  0
  3  4  2  0  0  0
  4  5  1  0  0  0
  5  6  2  0  0  0
  6  7  1  0  0  0
  6 10  1  0  0  0
  7  8  1  0  0  0
  8  9  2  0  0  0
  9 17  1  0  0  0
 17 18  1  0  0  0
 18 19  1  0  0  0
 18 23  2  0  0  0
 19 20  2  0  0  0
 20 21  1  0  0  0
 21 22  2  0  0  0
 22 23  1  0  0  0
 22 24  1  0  0  0
 24 25  1  0  0  0
 10 11  1  0  0  0
 10 12  1  0  0  0
M  END
> <minimizedAffinity>
-9.86225

$$$$
data/HSP90/cocry_dataset/1uy8_PU5_LIG.pdb


 25 27  0  0  0  0  0  0  0  0999 V2000
    6.3130   12.1960   23.5764 N   0  0  0  0  0  0  0  0  0  0  0  0
    6.7899   13.3649   24.1242 C   0  0  0  0  0  0  0  0  0  0  0  0
    8.0574   13.8125   24.1298 N   0  0  0  0  0  0  0  0  0  0  0  0
    8.1459   15.0112   24.7331 C   0  0  0  0  0  0  0  0  0  0  0  0
    7.1550   15.7524   25.2722 N   0  0  0  0  0  0  0  0  0  0  0  0
    5.8981   15.2514   25.2515 C   0  0  0  0  0  0  0  0  0  0  0  0
    5.6822   13.9993   24.6504 C   0  0  0  0  0  0  0  0  0  0  0  0
    4.5466   13.2472   24.4462 N   0  0  0  0  0  0  0  0  0  0  0  0
    4.9493   12.1396   23.8215 C   0  0  0  0  0  0  0  0  0  0  0  0
    4.8829   16.0270   25.7978 N   0  0  0  0  0  0  0  0  0  0  0  0
    5.1393   17.0064   25.8171 H   0  0  0  0  0  0  0  0  0  0  0  0
    3.9680   15.7918   25.4263 H   0  0  0  0  0  0  0  0  0  0  0  0
    7.1667   11.2561   22.8783 C   0  0  0  0  0  0  0  0  0  0  0  0
    7.8628   10.2224   23.7646 C   0  0  0  0  0  0  0  0  0  0  0  0
    8.1724    7.7538   24.1400 C   0  0  0  0  0  0  0  0  0  0  0  0
    7.1958    8.8450   23.7336 C   0  0  0  0  0  0  0  0  0  0  0  0
    4.0180   11.0178   23.4515 C   0  0  0  0  0  0  0  0  0  0  0  0
    2.5810   11.2898   23.8351 C   0  0  0  0  0  0  0  0  0  0  0  0
    2.0496   10.7704   25.0234 C   0  0  0  0  0  0  0  0  0  0  0  0
    0.6876   10.8883   25.2968 C   0  0  0  0  0  0  0  0  0  0  0  0
   -0.1550   11.5511   24.4017 C   0  0  0  0  0  0  0  0  0  0  0  0
    0.3731   12.1505   23.2588 C   0  0  0  0  0  0  0  0  0  0  0  0
    1.7409   12.0301   22.9902 C   0  0  0  0  0  0  0  0  0  0  0  0
   -0.3317   12.8581   22.3234 O   0  0  0  0  0  0  0  0  0  0  0  0
   -1.7235   12.5799   22.2269 C   0  0  0  0  0  0  0  0  0  0  0  0
 15 16  1  0  0  0
 16 14  1  0  0  0
 14 13  1  0  0  0
 13  1  1  0  0  0
  1  2  1  0  0  0
  1  9  1  0  0  0
  2  3  1  0  0  0
  2  7  2  0  0  0
  3  4  2  0  0  0
  4  5  1  0  0  0
  5  6  2  0  0  0
  6  7  1  0  0  0
  6 10  1  0  0  0
  7  8  1  0  0  0
  8  9  2  0  0  0
  9 17  1  0  0  0
 17 18  1  0  0  0
 18 19  1  0  0  0
 18 23  2  0  0  0
 19 20  2  0  0  0
 20 21  1  0  0  0
 21 22  2  0  0  0
 22 23  1  0  0  0
 22 24  1  0  0  0
 24 25  1  0  0  0
 10 11  1  0  0  0
 10 12  1  0  0  0
M  END
> <minimizedAffinity>
-9.83978

$$$$
