# created with PyMOL 2.5.0
@<TRIPOS>MOLECULE
data/HSP90/cocry_dataset/1uy9_PU6_LIG.pdb
43 46 1                 
SMALL
USER_CHARGES
@<TRIPOS>ATOM
1	 H17	3.263	8.971	23.460	 H	1	UNK0	0.000	
2	 H18	7.094	7.265	24.636	 H	1	UNK0	0.000	
3	 H01	4.230	16.800	26.222	 H	1	UNK0	0.000	
4	 H10	11.826	14.511	25.546	 H	1	UNK0	0.000	
5	 H02	1.757	13.386	24.539	 H	1	UNK0	0.000	
6	 H07	8.194	14.790	26.949	 H	1	UNK0	0.000	
7	 H06	9.353	13.505	26.460	 H	1	UNK0	0.000	
8	 H05	9.294	14.186	24.187	 H	1	UNK0	0.000	
9	 H12	10.051	15.938	27.536	 H	1	UNK0	0.000	
10	 H04	8.377	15.683	24.618	 H	1	UNK0	0.000	
11	 H09	11.380	13.755	27.095	 H	1	UNK0	0.000	
12	 H03	2.881	12.215	23.887	 H	1	UNK0	0.000	
13	 H08	12.271	15.296	27.080	 H	1	UNK0	0.000	
14	 H11	10.234	16.214	25.775	 H	1	UNK0	0.000	
15	 H15	6.394	11.052	21.437	 H	1	UNK0	0.000	
16	 H14	8.545	12.131	22.623	 H	1	UNK0	0.000	
17	 H13	8.830	11.599	24.309	 H	1	UNK0	0.000	
18	 H16	2.976	7.764	22.162	 H	1	UNK0	0.000	
19	 H19	8.595	9.273	24.709	 H	1	UNK0	0.000	
20	   N	7.275	13.943	24.603	N.pl3	1	UNK0	0.000	
21	   C	6.054	14.500	24.912	C.2	1	UNK0	0.000	
22	   N	5.818	15.686	25.506	N.2	1	UNK0	0.000	
23	   C	4.503	15.880	25.706	C.2	1	UNK0	0.000	
24	   N	3.483	15.080	25.348	N.2	1	UNK0	0.000	
25	   C	3.770	13.903	24.733	C.2	1	UNK0	0.000	
26	   C	5.118	13.574	24.501	C.2	1	UNK0	0.000	
27	   N	5.730	12.482	23.930	N.2	1	UNK0	0.000	
28	   C	7.035	12.707	24.020	C.2	1	UNK0	0.000	
29	   N	2.706	13.094	24.351	N.pl3	1	UNK0	0.000	
30	   C	8.536	14.627	24.835	C.3	1	UNK0	0.000	
31	   C	9.017	14.528	26.286	C.3	1	UNK0	0.000	
32	   C	11.511	14.702	26.572	C.3	1	UNK0	0.000	
33	   C	10.194	15.464	26.565	C.3	1	UNK0	0.000	
34	   C	8.083	11.732	23.526	C.3	1	UNK0	0.000	
35	   C	7.465	10.387	23.214	C.2	1	UNK0	0.000	
36	   C	6.472	10.310	22.231	C.2	1	UNK0	0.000	
37	   C	5.604	9.254	22.318	C.2	1	UNK0	0.000	
38	   O	4.374	9.215	21.730	O.3	1	UNK0	0.000	
39	   C	3.725	8.356	22.688	C.3	1	UNK0	0.000	
40	   O	4.661	7.449	23.309	O.3	1	UNK0	0.000	
41	   C	5.782	8.226	23.220	C.2	1	UNK0	0.000	
42	   C	6.886	8.149	24.034	C.2	1	UNK0	0.000	
43	   C	7.727	9.263	24.049	C.2	1	UNK0	0.000	
@<TRIPOS>BOND
1 20 21 1
2 20 28 1
3 21 22 1
4 21 26 2
5 22 23 2
6 3 23 1
7 23 24 1
8 24 25 2
9 25 26 1
10 25 29 1
11 26 27 1
12 27 28 2
13 28 34 1
14 5 29 1
15 12 29 1
16 8 30 1
17 10 30 1
18 20 30 1
19 6 31 1
20 7 31 1
21 30 31 1
22 4 32 1
23 11 32 1
24 13 32 1
25 32 33 1
26 9 33 1
27 14 33 1
28 31 33 1
29 16 34 1
30 17 34 1
31 34 35 1
32 35 36 1
33 35 43 2
34 15 36 1
35 36 37 2
36 37 38 1
37 37 41 1
38 38 39 1
39 1 39 1
40 18 39 1
41 39 40 1
42 40 41 1
43 41 42 2
44 2 42 1
45 42 43 1
46 19 43 1
@<TRIPOS>SUBSTRUCTURE
1	UNK0	1	GROUP	1 ****	UNK
