# created with PyMOL 2.5.0
@<TRIPOS>MOLECULE
data/HSP90/cocry_dataset/1uy9_PU6_LIG.pdb
43 46 1                 
SMALL
USER_CHARGES
@<TRIPOS>ATOM
1	   N	6.112	12.231	23.613	N.pl3	1	UNK0	0.000	
2	   C	6.707	13.375	24.096	C.2	1	UNK0	0.000	
3	   N	8.009	13.713	24.036	N.2	1	UNK0	0.000	
4	   C	8.242	14.877	24.665	C.2	1	UNK0	0.000	
5	   N	7.352	15.692	25.260	N.2	1	UNK0	0.000	
6	   C	6.046	15.318	25.277	C.2	1	UNK0	0.000	
7	   C	5.685	14.097	24.679	C.2	1	UNK0	0.000	
8	   N	4.484	13.440	24.543	N.2	1	UNK0	0.000	
9	   C	4.760	12.301	23.918	C.2	1	UNK0	0.000	
10	   N	5.133	16.177	25.878	N.pl3	1	UNK0	0.000	
11	   C	6.841	11.212	22.879	C.3	1	UNK0	0.000	
12	   C	7.647	10.276	23.786	C.3	1	UNK0	0.000	
13	   C	8.115	7.811	23.971	C.3	1	UNK0	0.000	
14	   C	7.035	8.875	23.853	C.3	1	UNK0	0.000	
15	   C	3.712	11.260	23.587	C.3	1	UNK0	0.000	
16	   C	2.319	11.834	23.720	C.2	1	UNK0	0.000	
17	   C	1.578	11.551	24.873	C.2	1	UNK0	0.000	
18	   C	0.215	11.630	24.761	C.2	1	UNK0	0.000	
19	   O	-0.666	11.029	25.611	O.3	1	UNK0	0.000	
20	   C	-1.741	10.830	24.670	C.3	1	UNK0	0.000	
21	   O	-1.742	11.844	23.643	O.3	1	UNK0	0.000	
22	   C	-0.405	12.118	23.629	C.2	1	UNK0	0.000	
23	   C	0.305	12.634	22.572	C.2	1	UNK0	0.000	
24	   C	1.690	12.463	22.608	C.2	1	UNK0	0.000	
25	 H01	9.282	15.202	24.698	 H	1	UNK0	0.000	
26	 H02	5.451	17.045	26.287	 H	1	UNK0	0.000	
27	 H03	4.153	15.935	25.905	 H	1	UNK0	0.000	
28	 H04	6.106	10.601	22.355	 H	1	UNK0	0.000	
29	 H05	7.528	11.704	22.190	 H	1	UNK0	0.000	
30	 H06	8.650	10.185	23.370	 H	1	UNK0	0.000	
31	 H07	7.674	10.697	24.791	 H	1	UNK0	0.000	
32	 H08	8.996	8.239	24.449	 H	1	UNK0	0.000	
33	 H09	7.744	6.981	24.572	 H	1	UNK0	0.000	
34	 H10	8.381	7.450	22.977	 H	1	UNK0	0.000	
35	 H11	6.396	8.819	24.734	 H	1	UNK0	0.000	
36	 H12	6.455	8.696	22.948	 H	1	UNK0	0.000	
37	 H13	3.815	10.429	24.285	 H	1	UNK0	0.000	
38	 H14	3.861	10.916	22.563	 H	1	UNK0	0.000	
39	 H15	2.060	11.281	25.812	 H	1	UNK0	0.000	
40	 H16	-2.684	10.893	25.213	 H	1	UNK0	0.000	
41	 H17	-1.626	9.852	24.203	 H	1	UNK0	0.000	
42	 H18	-0.188	13.150	21.748	 H	1	UNK0	0.000	
43	 H19	2.298	12.816	21.775	 H	1	UNK0	0.000	
@<TRIPOS>BOND
1 13 14 1
2 12 14 1
3 11 12 1
4 1 11 1
5 1 2 1
6 1 9 1
7 2 3 1
8 2 7 2
9 3 4 2
10 4 5 1
11 5 6 2
12 6 7 1
13 6 10 1
14 7 8 1
15 8 9 2
16 9 15 1
17 15 16 1
18 16 17 1
19 16 24 2
20 17 18 2
21 18 19 1
22 18 22 1
23 19 20 1
24 20 21 1
25 21 22 1
26 22 23 2
27 23 24 1
28 4 25 1
29 10 26 1
30 10 27 1
31 11 28 1
32 11 29 1
33 12 30 1
34 12 31 1
35 13 32 1
36 13 33 1
37 13 34 1
38 14 35 1
39 14 36 1
40 15 37 1
41 15 38 1
42 17 39 1
43 20 40 1
44 20 41 1
45 23 42 1
46 24 43 1
@<TRIPOS>SUBSTRUCTURE
1	UNK0	1	GROUP	1 ****	UNK
