# created with PyMOL 2.5.0
@<TRIPOS>MOLECULE
data/HSP90/cocry_dataset/1uy9_PU6_LIG.pdb
43 46 1                 
SMALL
USER_CHARGES
@<TRIPOS>ATOM
1	 H17	10.511	13.326	25.717	 H	1	UNK0	0.000	
2	 H18	7.799	15.403	28.419	 H	1	UNK0	0.000	
3	 H01	5.224	7.670	22.820	 H	1	UNK0	0.000	
4	 H10	1.587	13.423	25.101	 H	1	UNK0	0.000	
5	 H02	9.260	9.695	22.359	 H	1	UNK0	0.000	
6	 H07	2.815	11.927	22.254	 H	1	UNK0	0.000	
7	 H06	1.726	10.800	23.137	 H	1	UNK0	0.000	
8	 H05	2.820	11.082	25.056	 H	1	UNK0	0.000	
9	 H12	0.111	12.331	23.288	 H	1	UNK0	0.000	
10	 H04	2.826	12.877	24.846	 H	1	UNK0	0.000	
11	 H09	0.351	14.444	24.327	 H	1	UNK0	0.000	
12	 H03	9.054	11.362	22.850	 H	1	UNK0	0.000	
13	 H08	2.056	14.585	23.837	 H	1	UNK0	0.000	
14	 H11	1.062	13.310	22.127	 H	1	UNK0	0.000	
15	 H15	7.448	15.225	23.428	 H	1	UNK0	0.000	
16	 H14	4.838	14.946	23.838	 H	1	UNK0	0.000	
17	 H13	4.358	14.294	25.435	 H	1	UNK0	0.000	
18	 H16	11.677	14.688	25.631	 H	1	UNK0	0.000	
19	 H19	5.567	15.079	27.321	 H	1	UNK0	0.000	
20	   N	4.477	11.894	24.105	N.pl3	1	UNK0	0.000	
21	   C	5.129	10.780	23.624	C.2	1	UNK0	0.000	
22	   N	4.611	9.558	23.399	N.2	1	UNK0	0.000	
23	   C	5.555	8.696	22.984	C.2	1	UNK0	0.000	
24	   N	6.856	8.940	22.747	N.2	1	UNK0	0.000	
25	   C	7.327	10.195	22.969	C.2	1	UNK0	0.000	
26	   C	6.438	11.177	23.440	C.2	1	UNK0	0.000	
27	   N	6.596	12.504	23.770	N.2	1	UNK0	0.000	
28	   C	5.409	12.918	24.194	C.2	1	UNK0	0.000	
29	   N	8.669	10.440	22.702	N.pl3	1	UNK0	0.000	
30	   C	3.052	11.913	24.390	C.3	1	UNK0	0.000	
31	   C	2.185	11.789	23.133	C.3	1	UNK0	0.000	
32	   C	1.279	13.896	24.168	C.3	1	UNK0	0.000	
33	   C	1.063	12.829	23.105	C.3	1	UNK0	0.000	
34	   C	5.145	14.328	24.682	C.3	1	UNK0	0.000	
35	   C	6.387	14.924	25.308	C.2	1	UNK0	0.000	
36	   C	7.521	15.116	24.510	C.2	1	UNK0	0.000	
37	   C	8.726	15.161	25.159	C.2	1	UNK0	0.000	
38	   O	9.933	14.944	24.562	O.3	1	UNK0	0.000	
39	   C	10.626	14.409	25.708	C.3	1	UNK0	0.000	
40	   O	10.106	14.948	26.942	O.3	1	UNK0	0.000	
41	   C	8.823	15.180	26.535	C.2	1	UNK0	0.000	
42	   C	7.715	15.240	27.345	C.2	1	UNK0	0.000	
43	   C	6.476	15.082	26.720	C.2	1	UNK0	0.000	
@<TRIPOS>BOND
1 20 21 1
2 20 28 1
3 21 22 1
4 21 26 2
5 22 23 2
6 3 23 1
7 23 24 1
8 24 25 2
9 25 26 1
10 25 29 1
11 26 27 1
12 27 28 2
13 28 34 1
14 5 29 1
15 12 29 1
16 8 30 1
17 10 30 1
18 20 30 1
19 6 31 1
20 7 31 1
21 30 31 1
22 4 32 1
23 11 32 1
24 13 32 1
25 32 33 1
26 9 33 1
27 14 33 1
28 31 33 1
29 16 34 1
30 17 34 1
31 34 35 1
32 35 36 1
33 35 43 2
34 15 36 1
35 36 37 2
36 37 38 1
37 37 41 1
38 38 39 1
39 1 39 1
40 18 39 1
41 39 40 1
42 40 41 1
43 41 42 2
44 2 42 1
45 42 43 1
46 19 43 1
@<TRIPOS>SUBSTRUCTURE
1	UNK0	1	GROUP	1 ****	UNK
