data/HSP90/cocry_dataset/1uy9_PU6_LIG.pdb


 26 29  0  0  0  0  0  0  0  0999 V2000
    6.1117   12.2310   23.6128 N   0  0  0  0  0  0  0  0  0  0  0  0
    6.7066   13.3753   24.0963 C   0  0  0  0  0  0  0  0  0  0  0  0
    8.0086   13.7131   24.0356 N   0  0  0  0  0  0  0  0  0  0  0  0
    8.2419   14.8774   24.6652 C   0  0  0  0  0  0  0  0  0  0  0  0
    7.3522   15.6922   25.2595 N   0  0  0  0  0  0  0  0  0  0  0  0
    6.0456   15.3177   25.2774 C   0  0  0  0  0  0  0  0  0  0  0  0
    5.6853   14.0971   24.6790 C   0  0  0  0  0  0  0  0  0  0  0  0
    4.4839   13.4398   24.5428 N   0  0  0  0  0  0  0  0  0  0  0  0
    4.7598   12.3013   23.9183 C   0  0  0  0  0  0  0  0  0  0  0  0
    5.1334   16.1775   25.8778 N   0  0  0  0  0  0  0  0  0  0  0  0
    5.4908   17.1221   25.9148 H   0  0  0  0  0  0  0  0  0  0  0  0
    4.1888   16.0464   25.5342 H   0  0  0  0  0  0  0  0  0  0  0  0
    6.8413   11.2115   22.8787 C   0  0  0  0  0  0  0  0  0  0  0  0
    7.6469   10.2758   23.7861 C   0  0  0  0  0  0  0  0  0  0  0  0
    8.1152    7.8109   23.9710 C   0  0  0  0  0  0  0  0  0  0  0  0
    7.0352    8.8754   23.8529 C   0  0  0  0  0  0  0  0  0  0  0  0
    3.7123   11.2596   23.5870 C   0  0  0  0  0  0  0  0  0  0  0  0
    2.3187   11.8336   23.7200 C   0  0  0  0  0  0  0  0  0  0  0  0
    1.5777   11.5509   24.8729 C   0  0  0  0  0  0  0  0  0  0  0  0
    0.2151   11.6301   24.7609 C   0  0  0  0  0  0  0  0  0  0  0  0
   -0.6660   11.0287   25.6105 O   0  0  0  0  0  0  0  0  0  0  0  0
   -1.7407   10.8299   24.6704 C   0  0  0  0  0  0  0  0  0  0  0  0
   -1.7425   11.8440   23.6427 O   0  0  0  0  0  0  0  0  0  0  0  0
   -0.4045   12.1179   23.6292 C   0  0  0  0  0  0  0  0  0  0  0  0
    0.3050   12.6339   22.5722 C   0  0  0  0  0  0  0  0  0  0  0  0
    1.6904   12.4633   22.6079 C   0  0  0  0  0  0  0  0  0  0  0  0
 15 16  1  0  0  0
 16 14  1  0  0  0
 14 13  1  0  0  0
 13  1  1  0  0  0
  1  2  1  0  0  0
  1  9  1  0  0  0
  2  3  1  0  0  0
  2  7  2  0  0  0
  3  4  2  0  0  0
  4  5  1  0  0  0
  5  6  2  0  0  0
  6  7  1  0  0  0
  6 10  1  0  0  0
  7  8  1  0  0  0
  8  9  2  0  0  0
  9 17  1  0  0  0
 17 18  1  0  0  0
 18 19  1  0  0  0
 18 26  2  0  0  0
 19 20  2  0  0  0
 20 21  1  0  0  0
 20 24  1  0  0  0
 21 22  1  0  0  0
 22 23  1  0  0  0
 23 24  1  0  0  0
 24 25  2  0  0  0
 25 26  1  0  0  0
 10 11  1  0  0  0
 10 12  1  0  0  0
M  END
> <minimizedAffinity>
-9.91392

$$$$
data/HSP90/cocry_dataset/1uy9_PU6_LIG.pdb


 26 29  0  0  0  0  0  0  0  0999 V2000
    7.2750   13.9432   24.6030 N   0  0  0  0  0  0  0  0  0  0  0  0
    6.0539   14.5005   24.9117 C   0  0  0  0  0  0  0  0  0  0  0  0
    5.8181   15.6856   25.5058 N   0  0  0  0  0  0  0  0  0  0  0  0
    4.5033   15.8797   25.7058 C   0  0  0  0  0  0  0  0  0  0  0  0
    3.4826   15.0801   25.3485 N   0  0  0  0  0  0  0  0  0  0  0  0
    3.7701   13.9029   24.7327 C   0  0  0  0  0  0  0  0  0  0  0  0
    5.1177   13.5738   24.5015 C   0  0  0  0  0  0  0  0  0  0  0  0
    5.7300   12.4817   23.9300 N   0  0  0  0  0  0  0  0  0  0  0  0
    7.0352   12.7068   24.0203 C   0  0  0  0  0  0  0  0  0  0  0  0
    2.7057   13.0944   24.3514 N   0  0  0  0  0  0  0  0  0  0  0  0
    1.8535   13.6301   24.2612 H   0  0  0  0  0  0  0  0  0  0  0  0
    2.9458   12.4639   23.5948 H   0  0  0  0  0  0  0  0  0  0  0  0
    8.5360   14.6266   24.8347 C   0  0  0  0  0  0  0  0  0  0  0  0
    9.0175   14.5275   26.2859 C   0  0  0  0  0  0  0  0  0  0  0  0
   11.5109   14.7021   26.5718 C   0  0  0  0  0  0  0  0  0  0  0  0
   10.1945   15.4639   26.5645 C   0  0  0  0  0  0  0  0  0  0  0  0
    8.0831   11.7321   23.5263 C   0  0  0  0  0  0  0  0  0  0  0  0
    7.4652   10.3867   23.2144 C   0  0  0  0  0  0  0  0  0  0  0  0
    6.4723   10.3097   22.2314 C   0  0  0  0  0  0  0  0  0  0  0  0
    5.6040    9.2543   22.3182 C   0  0  0  0  0  0  0  0  0  0  0  0
    4.3743    9.2153   21.7297 O   0  0  0  0  0  0  0  0  0  0  0  0
    3.7252    8.3558   22.6880 C   0  0  0  0  0  0  0  0  0  0  0  0
    4.6615    7.4490   23.3088 O   0  0  0  0  0  0  0  0  0  0  0  0
    5.7816    8.2257   23.2199 C   0  0  0  0  0  0  0  0  0  0  0  0
    6.8857    8.1493   24.0335 C   0  0  0  0  0  0  0  0  0  0  0  0
    7.7274    9.2633   24.0494 C   0  0  0  0  0  0  0  0  0  0  0  0
 15 16  1  0  0  0
 16 14  1  0  0  0
 14 13  1  0  0  0
 13  1  1  0  0  0
  1  2  1  0  0  0
  1  9  1  0  0  0
  2  3  1  0  0  0
  2  7  2  0  0  0
  3  4  2  0  0  0
  4  5  1  0  0  0
  5  6  2  0  0  0
  6  7  1  0  0  0
  6 10  1  0  0  0
  7  8  1  0  0  0
  8  9  2  0  0  0
  9 17  1  0  0  0
 17 18  1  0  0  0
 18 19  1  0  0  0
 18 26  2  0  0  0
 19 20  2  0  0  0
 20 21  1  0  0  0
 20 24  1  0  0  0
 21 22  1  0  0  0
 22 23  1  0  0  0
 23 24  1  0  0  0
 24 25  2  0  0  0
 25 26  1  0  0  0
 10 11  1  0  0  0
 10 12  1  0  0  0
M  END
> <minimizedAffinity>
-9.59312

$$$$
data/HSP90/cocry_dataset/1uy9_PU6_LIG.pdb


 26 29  0  0  0  0  0  0  0  0999 V2000
    4.4767   11.8940   24.1050 N   0  0  0  0  0  0  0  0  0  0  0  0
    5.1289   10.7804   23.6237 C   0  0  0  0  0  0  0  0  0  0  0  0
    4.6110    9.5580   23.3987 N   0  0  0  0  0  0  0  0  0  0  0  0
    5.5547    8.6955   22.9842 C   0  0  0  0  0  0  0  0  0  0  0  0
    6.8557    8.9400   22.7466 N   0  0  0  0  0  0  0  0  0  0  0  0
    7.3275   10.1953   22.9692 C   0  0  0  0  0  0  0  0  0  0  0  0
    6.4375   11.1771   23.4400 C   0  0  0  0  0  0  0  0  0  0  0  0
    6.5962   12.5036   23.7704 N   0  0  0  0  0  0  0  0  0  0  0  0
    5.4086   12.9184   24.1945 C   0  0  0  0  0  0  0  0  0  0  0  0
    8.6694   10.4397   22.7019 N   0  0  0  0  0  0  0  0  0  0  0  0
    9.0424    9.7614   22.0522 H   0  0  0  0  0  0  0  0  0  0  0  0
    8.8589   11.4186   22.5184 H   0  0  0  0  0  0  0  0  0  0  0  0
    3.0522   11.9133   24.3898 C   0  0  0  0  0  0  0  0  0  0  0  0
    2.1846   11.7889   23.1330 C   0  0  0  0  0  0  0  0  0  0  0  0
    1.2791   13.8957   24.1678 C   0  0  0  0  0  0  0  0  0  0  0  0
    1.0632   12.8289   23.1055 C   0  0  0  0  0  0  0  0  0  0  0  0
    5.1453   14.3275   24.6817 C   0  0  0  0  0  0  0  0  0  0  0  0
    6.3872   14.9235   25.3077 C   0  0  0  0  0  0  0  0  0  0  0  0
    7.5210   15.1162   24.5105 C   0  0  0  0  0  0  0  0  0  0  0  0
    8.7263   15.1609   25.1590 C   0  0  0  0  0  0  0  0  0  0  0  0
    9.9331   14.9442   24.5620 O   0  0  0  0  0  0  0  0  0  0  0  0
   10.6257   14.4094   25.7077 C   0  0  0  0  0  0  0  0  0  0  0  0
   10.1056   14.9476   26.9424 O   0  0  0  0  0  0  0  0  0  0  0  0
    8.8229   15.1804   26.5348 C   0  0  0  0  0  0  0  0  0  0  0  0
    7.7150   15.2402   27.3447 C   0  0  0  0  0  0  0  0  0  0  0  0
    6.4763   15.0815   26.7202 C   0  0  0  0  0  0  0  0  0  0  0  0
 15 16  1  0  0  0
 16 14  1  0  0  0
 14 13  1  0  0  0
 13  1  1  0  0  0
  1  2  1  0  0  0
  1  9  1  0  0  0
  2  3  1  0  0  0
  2  7  2  0  0  0
  3  4  2  0  0  0
  4  5  1  0  0  0
  5  6  2  0  0  0
  6  7  1  0  0  0
  6 10  1  0  0  0
  7  8  1  0  0  0
  8  9  2  0  0  0
  9 17  1  0  0  0
 17 18  1  0  0  0
 18 19  1  0  0  0
 18 26  2  0  0  0
 19 20  2  0  0  0
 20 21  1  0  0  0
 20 24  1  0  0  0
 21 22  1  0  0  0
 22 23  1  0  0  0
 23 24  1  0  0  0
 24 25  2  0  0  0
 25 26  1  0  0  0
 10 11  1  0  0  0
 10 12  1  0  0  0
M  END
> <minimizedAffinity>
-9.10969

$$$$
