data/HSP90/cocry_dataset/1uy9_PU6_LIG.pdb
 OpenBabel03092321123D

 26 29  0  0  0  0  0  0  0  0999 V2000
    7.2750   13.9432   24.6030 N   0  0  0  0  0  0  0  0  0  0  0  0
    6.0539   14.5005   24.9117 C   0  0  0  0  0  0  0  0  0  0  0  0
    5.8181   15.6856   25.5058 N   0  0  0  0  0  0  0  0  0  0  0  0
    4.5033   15.8797   25.7058 C   0  0  0  0  0  0  0  0  0  0  0  0
    3.4826   15.0801   25.3485 N   0  0  0  0  0  0  0  0  0  0  0  0
    3.7701   13.9029   24.7327 C   0  0  0  0  0  0  0  0  0  0  0  0
    5.1177   13.5738   24.5015 C   0  0  0  0  0  0  0  0  0  0  0  0
    5.7300   12.4817   23.9300 N   0  0  0  0  0  0  0  0  0  0  0  0
    7.0352   12.7068   24.0203 C   0  0  0  0  0  0  0  0  0  0  0  0
    2.7057   13.0944   24.3514 N   0  0  0  0  0  0  0  0  0  0  0  0
    1.8535   13.6301   24.2612 H   0  0  0  0  0  0  0  0  0  0  0  0
    2.9458   12.4639   23.5948 H   0  0  0  0  0  0  0  0  0  0  0  0
    8.5360   14.6266   24.8347 C   0  0  0  0  0  0  0  0  0  0  0  0
    9.0175   14.5275   26.2859 C   0  0  0  0  0  0  0  0  0  0  0  0
   11.5109   14.7021   26.5718 C   0  0  0  0  0  0  0  0  0  0  0  0
   10.1945   15.4639   26.5645 C   0  0  0  0  0  0  0  0  0  0  0  0
    8.0831   11.7321   23.5263 C   0  0  0  0  0  0  0  0  0  0  0  0
    7.4652   10.3867   23.2144 C   0  0  0  0  0  0  0  0  0  0  0  0
    6.4723   10.3097   22.2314 C   0  0  0  0  0  0  0  0  0  0  0  0
    5.6040    9.2543   22.3182 C   0  0  0  0  0  0  0  0  0  0  0  0
    4.3743    9.2153   21.7297 O   0  0  0  0  0  0  0  0  0  0  0  0
    3.7252    8.3558   22.6880 C   0  0  0  0  0  0  0  0  0  0  0  0
    4.6615    7.4490   23.3088 O   0  0  0  0  0  0  0  0  0  0  0  0
    5.7816    8.2257   23.2199 C   0  0  0  0  0  0  0  0  0  0  0  0
    6.8857    8.1493   24.0335 C   0  0  0  0  0  0  0  0  0  0  0  0
    7.7274    9.2633   24.0494 C   0  0  0  0  0  0  0  0  0  0  0  0
  1  2  1  0  0  0  0
  1  9  1  0  0  0  0
  2  3  1  0  0  0  0
  2  7  2  0  0  0  0
  3  4  2  0  0  0  0
  4  5  1  0  0  0  0
  5  6  2  0  0  0  0
  6  7  1  0  0  0  0
  6 10  1  0  0  0  0
  7  8  1  0  0  0  0
  8  9  2  0  0  0  0
  9 17  1  0  0  0  0
 10 11  1  0  0  0  0
 10 12  1  0  0  0  0
 13  1  1  0  0  0  0
 14 13  1  0  0  0  0
 15 16  1  0  0  0  0
 16 14  1  0  0  0  0
 17 18  1  0  0  0  0
 18 19  1  0  0  0  0
 18 26  2  0  0  0  0
 19 20  2  0  0  0  0
 20 21  1  0  0  0  0
 20 24  1  0  0  0  0
 21 22  1  0  0  0  0
 22 23  1  0  0  0  0
 23 24  1  0  0  0  0
 24 25  2  0  0  0  0
 25 26  1  0  0  0  0
M  END
>  <minimizedAffinity>
-9.59312

$$$$
