# created with PyMOL 2.5.0
@<TRIPOS>MOLECULE
data/HSP90/cocry_dataset/1uyc_PU7_LIG.pdb
48 50 1                 
SMALL
USER_CHARGES
@<TRIPOS>ATOM
1	   C	4.974	12.120	23.787	C.2	1	UNK0	0.000	
2	   N	4.557	13.216	24.407	N.2	1	UNK0	0.000	
3	   C	5.686	13.972	24.622	C.2	1	UNK0	0.000	
4	   C	5.890	15.207	25.270	C.2	1	UNK0	0.000	
5	   N	4.862	15.946	25.849	N.pl3	1	UNK0	0.000	
6	   N	7.148	15.698	25.334	N.2	1	UNK0	0.000	
7	   C	8.149	14.969	24.790	C.2	1	UNK0	0.000	
8	   N	8.073	13.790	24.143	N.2	1	UNK0	0.000	
9	   C	6.802	13.347	24.096	C.2	1	UNK0	0.000	
10	   N	6.330	12.196	23.518	N.pl3	1	UNK0	0.000	
11	   C	4.097	10.934	23.491	C.3	1	UNK0	0.000	
12	   C	2.088	10.584	25.027	C.2	1	UNK0	0.000	
13	   C	0.735	10.801	25.311	C.2	1	UNK0	0.000	
14	   C	-0.066	11.564	24.452	C.2	1	UNK0	0.000	
15	   C	0.480	12.136	23.308	C.2	1	UNK0	0.000	
16	   C	1.829	11.924	23.024	C.2	1	UNK0	0.000	
17	   C	2.644	11.137	23.862	C.2	1	UNK0	0.000	
18	   C	2.394	8.785	26.558	C.3	1	UNK0	0.000	
19	   O	2.942	9.881	25.835	O.3	1	UNK0	0.000	
20	   O	-0.184	12.916	22.403	O.3	1	UNK0	0.000	
21	   C	-1.549	12.602	22.162	C.3	1	UNK0	0.000	
22	   C	7.174	11.213	22.869	C.3	1	UNK0	0.000	
23	   C	7.788	10.168	23.806	C.3	1	UNK0	0.000	
24	   C	7.293	8.742	23.557	C.3	1	UNK0	0.000	
25	   C	8.172	7.718	24.258	C.3	1	UNK0	0.000	
26	 H01	5.066	16.826	26.301	 H	1	UNK0	0.000	
27	 H02	3.913	15.603	25.816	 H	1	UNK0	0.000	
28	 H03	9.149	15.392	24.888	 H	1	UNK0	0.000	
29	 H04	4.129	10.779	22.412	 H	1	UNK0	0.000	
30	 H05	4.478	10.077	24.047	 H	1	UNK0	0.000	
31	 H06	0.299	10.370	26.213	 H	1	UNK0	0.000	
32	 H07	-1.122	11.709	24.682	 H	1	UNK0	0.000	
33	 H08	2.264	12.377	22.133	 H	1	UNK0	0.000	
34	 H09	1.400	8.558	26.173	 H	1	UNK0	0.000	
35	 H10	3.037	7.913	26.439	 H	1	UNK0	0.000	
36	 H11	2.324	9.045	27.614	 H	1	UNK0	0.000	
37	 H12	-2.130	13.523	22.114	 H	1	UNK0	0.000	
38	 H13	-1.639	12.067	21.217	 H	1	UNK0	0.000	
39	 H14	-1.927	11.977	22.971	 H	1	UNK0	0.000	
40	 H15	8.010	11.765	22.439	 H	1	UNK0	0.000	
41	 H16	6.574	10.690	22.124	 H	1	UNK0	0.000	
42	 H17	7.483	10.435	24.818	 H	1	UNK0	0.000	
43	 H18	8.870	10.184	23.677	 H	1	UNK0	0.000	
44	 H19	7.331	8.549	22.485	 H	1	UNK0	0.000	
45	 H20	6.273	8.649	23.930	 H	1	UNK0	0.000	
46	 H21	9.083	8.202	24.609	 H	1	UNK0	0.000	
47	 H22	7.634	7.297	25.108	 H	1	UNK0	0.000	
48	 H23	8.430	6.921	23.561	 H	1	UNK0	0.000	
@<TRIPOS>BOND
1 18 19 1
2 12 19 1
3 12 13 1
4 12 17 2
5 13 14 2
6 14 15 1
7 15 20 1
8 15 16 2
9 20 21 1
10 16 17 1
11 11 17 1
12 1 11 1
13 1 2 2
14 1 10 1
15 2 3 1
16 3 4 1
17 3 9 2
18 4 5 1
19 4 6 2
20 6 7 1
21 7 8 2
22 8 9 1
23 9 10 1
24 10 22 1
25 22 23 1
26 23 24 1
27 24 25 1
28 5 26 1
29 5 27 1
30 7 28 1
31 11 29 1
32 11 30 1
33 13 31 1
34 14 32 1
35 16 33 1
36 18 34 1
37 18 35 1
38 18 36 1
39 21 37 1
40 21 38 1
41 21 39 1
42 22 40 1
43 22 41 1
44 23 42 1
45 23 43 1
46 24 44 1
47 24 45 1
48 25 46 1
49 25 47 1
50 25 48 1
@<TRIPOS>SUBSTRUCTURE
1	UNK0	1	GROUP	1 ****	UNK
