data/HSP90/cocry_dataset/1uyc_PU7_LIG.pdb
 OpenBabel03092321123D

 27 29  0  0  0  0  0  0  0  0999 V2000
    6.8132   11.3919   23.4884 C   0  0  0  0  0  0  0  0  0  0  0  0
    7.7533   10.4805   23.7032 N   0  0  0  0  0  0  0  0  0  0  0  0
    7.0806    9.3111   23.9743 C   0  0  0  0  0  0  0  0  0  0  0  0
    7.5267    8.0203   24.3223 C   0  0  0  0  0  0  0  0  0  0  0  0
    8.8717    7.6838   24.4477 N   0  0  0  0  0  0  0  0  0  0  0  0
    6.6013    7.0611   24.5470 N   0  0  0  0  0  0  0  0  0  0  0  0
    5.2947    7.3938   24.4450 C   0  0  0  0  0  0  0  0  0  0  0  0
    4.7548    8.5821   24.1133 N   0  0  0  0  0  0  0  0  0  0  0  0
    5.7136    9.5017   23.8898 C   0  0  0  0  0  0  0  0  0  0  0  0
    5.5556   10.8145   23.5258 N   0  0  0  0  0  0  0  0  0  0  0  0
    9.4816    8.3102   23.9425 H   0  0  0  0  0  0  0  0  0  0  0  0
    9.0163    6.6874   24.3415 H   0  0  0  0  0  0  0  0  0  0  0  0
    7.0887   12.8596   23.3058 C   0  0  0  0  0  0  0  0  0  0  0  0
    6.5994   14.4604   25.2346 C   0  0  0  0  0  0  0  0  0  0  0  0
    7.0170   15.0984   26.4074 C   0  0  0  0  0  0  0  0  0  0  0  0
    8.2907   14.8619   26.9394 C   0  0  0  0  0  0  0  0  0  0  0  0
    9.1562   13.9690   26.3158 C   0  0  0  0  0  0  0  0  0  0  0  0
    8.7406   13.3292   25.1473 C   0  0  0  0  0  0  0  0  0  0  0  0
    7.4735   13.5753   24.5829 C   0  0  0  0  0  0  0  0  0  0  0  0
    4.3396   15.1654   25.4980 C   0  0  0  0  0  0  0  0  0  0  0  0
    5.3587   14.6131   24.6737 O   0  0  0  0  0  0  0  0  0  0  0  0
   10.4113   13.6343   26.7407 O   0  0  0  0  0  0  0  0  0  0  0  0
   11.4024   14.6519   26.6843 C   0  0  0  0  0  0  0  0  0  0  0  0
    4.2678   11.4557   23.3524 C   0  0  0  0  0  0  0  0  0  0  0  0
    3.3649   11.4380   24.5904 C   0  0  0  0  0  0  0  0  0  0  0  0
    1.8768   11.6080   24.2774 C   0  0  0  0  0  0  0  0  0  0  0  0
    1.5564   13.0348   23.8587 C   0  0  0  0  0  0  0  0  0  0  0  0
  1  2  2  0  0  0  0
  1 10  1  0  0  0  0
  2  3  1  0  0  0  0
  3  4  1  0  0  0  0
  3  9  2  0  0  0  0
  4  5  1  0  0  0  0
  4  6  2  0  0  0  0
  5 11  1  0  0  0  0
  5 12  1  0  0  0  0
  6  7  1  0  0  0  0
  7  8  2  0  0  0  0
  8  9  1  0  0  0  0
  9 10  1  0  0  0  0
 10 24  1  0  0  0  0
 13  1  1  0  0  0  0
 14 15  1  0  0  0  0
 14 19  2  0  0  0  0
 15 16  2  0  0  0  0
 16 17  1  0  0  0  0
 17 22  1  0  0  0  0
 17 18  2  0  0  0  0
 18 19  1  0  0  0  0
 19 13  1  0  0  0  0
 20 21  1  0  0  0  0
 21 14  1  0  0  0  0
 22 23  1  0  0  0  0
 24 25  1  0  0  0  0
 25 26  1  0  0  0  0
 26 27  1  0  0  0  0
M  END
>  <minimizedAffinity>
-8.93747

$$$$
