# created with PyMOL 2.5.0
@<TRIPOS>MOLECULE
data/HSP90/cocry_dataset/1uyc_PU7_LIG.pdb
48 50 1                 
SMALL
USER_CHARGES
@<TRIPOS>ATOM
1	 H01	5.066	16.826	26.301	 H	1	UNK0	0.000	
2	 H12	-2.130	13.523	22.114	 H	1	UNK0	0.000	
3	 H04	4.466	10.108	24.099	 H	1	UNK0	0.000	
4	 H03	9.149	15.392	24.888	 H	1	UNK0	0.000	
5	 H02	3.913	15.603	25.816	 H	1	UNK0	0.000	
6	 H11	2.324	9.045	27.614	 H	1	UNK0	0.000	
7	 H09	1.400	8.558	26.173	 H	1	UNK0	0.000	
8	 H08	2.264	12.377	22.133	 H	1	UNK0	0.000	
9	 H15	8.010	11.765	22.439	 H	1	UNK0	0.000	
10	 H07	-1.122	11.709	24.682	 H	1	UNK0	0.000	
11	 H06	0.299	10.370	26.213	 H	1	UNK0	0.000	
12	 H05	4.153	10.723	22.423	 H	1	UNK0	0.000	
13	 H23	8.430	6.921	23.561	 H	1	UNK0	0.000	
14	 H14	-1.927	11.977	22.971	 H	1	UNK0	0.000	
15	 H18	8.870	10.184	23.677	 H	1	UNK0	0.000	
16	 H17	7.483	10.435	24.818	 H	1	UNK0	0.000	
17	 H16	6.574	10.690	22.124	 H	1	UNK0	0.000	
18	 H19	7.331	8.549	22.485	 H	1	UNK0	0.000	
19	 H22	7.634	7.297	25.108	 H	1	UNK0	0.000	
20	 H21	9.083	8.202	24.609	 H	1	UNK0	0.000	
21	 H20	6.273	8.649	23.930	 H	1	UNK0	0.000	
22	 H10	3.037	7.913	26.439	 H	1	UNK0	0.000	
23	 H13	-1.639	12.067	21.217	 H	1	UNK0	0.000	
24	   C	4.974	12.120	23.787	C.2	1	UNK0	0.000	
25	   N	4.557	13.216	24.407	N.2	1	UNK0	0.000	
26	   C	5.686	13.972	24.622	C.2	1	UNK0	0.000	
27	   C	5.890	15.207	25.270	C.2	1	UNK0	0.000	
28	   N	4.862	15.946	25.849	N.pl3	1	UNK0	0.000	
29	   N	7.148	15.698	25.334	N.2	1	UNK0	0.000	
30	   C	8.149	14.969	24.790	C.2	1	UNK0	0.000	
31	   N	8.073	13.790	24.143	N.2	1	UNK0	0.000	
32	   C	6.802	13.347	24.096	C.2	1	UNK0	0.000	
33	   N	6.330	12.196	23.518	N.pl3	1	UNK0	0.000	
34	   C	4.097	10.934	23.491	C.3	1	UNK0	0.000	
35	   C	2.088	10.584	25.027	C.2	1	UNK0	0.000	
36	   C	0.735	10.801	25.311	C.2	1	UNK0	0.000	
37	   C	-0.066	11.564	24.452	C.2	1	UNK0	0.000	
38	   C	0.480	12.136	23.308	C.2	1	UNK0	0.000	
39	   C	1.829	11.924	23.024	C.2	1	UNK0	0.000	
40	   C	2.644	11.137	23.862	C.2	1	UNK0	0.000	
41	   C	2.394	8.785	26.558	C.3	1	UNK0	0.000	
42	   O	2.942	9.881	25.835	O.3	1	UNK0	0.000	
43	   O	-0.184	12.916	22.403	O.3	1	UNK0	0.000	
44	   C	-1.549	12.602	22.162	C.3	1	UNK0	0.000	
45	   C	7.174	11.213	22.869	C.3	1	UNK0	0.000	
46	   C	7.788	10.168	23.806	C.3	1	UNK0	0.000	
47	   C	7.293	8.742	23.557	C.3	1	UNK0	0.000	
48	   C	8.172	7.718	24.258	C.3	1	UNK0	0.000	
@<TRIPOS>BOND
1 24 25 2
2 24 33 1
3 25 26 1
4 26 27 1
5 26 32 2
6 27 28 1
7 27 29 2
8 1 28 1
9 5 28 1
10 29 30 1
11 4 30 1
12 30 31 2
13 31 32 1
14 32 33 1
15 33 45 1
16 3 34 1
17 12 34 1
18 24 34 1
19 35 36 1
20 35 40 2
21 11 36 1
22 36 37 2
23 10 37 1
24 37 38 1
25 38 39 2
26 38 43 1
27 8 39 1
28 39 40 1
29 34 40 1
30 6 41 1
31 7 41 1
32 22 41 1
33 41 42 1
34 35 42 1
35 43 44 1
36 2 44 1
37 14 44 1
38 23 44 1
39 9 45 1
40 17 45 1
41 45 46 1
42 15 46 1
43 16 46 1
44 46 47 1
45 18 47 1
46 21 47 1
47 47 48 1
48 13 48 1
49 19 48 1
50 20 48 1
@<TRIPOS>SUBSTRUCTURE
1	UNK0	1	GROUP	1 ****	UNK
