data/HSP90/cocry_dataset/1uyc_PU7_LIG.pdb
 OpenBabel03092321123D

 27 29  0  0  0  0  0  0  0  0999 V2000
    4.9743   12.1197   23.7868 C   0  0  0  0  0  0  0  0  0  0  0  0
    4.5573   13.2160   24.4071 N   0  0  0  0  0  0  0  0  0  0  0  0
    5.6864   13.9724   24.6221 C   0  0  0  0  0  0  0  0  0  0  0  0
    5.8904   15.2072   25.2701 C   0  0  0  0  0  0  0  0  0  0  0  0
    4.8624   15.9465   25.8486 N   0  0  0  0  0  0  0  0  0  0  0  0
    7.1484   15.6975   25.3341 N   0  0  0  0  0  0  0  0  0  0  0  0
    8.1493   14.9692   24.7899 C   0  0  0  0  0  0  0  0  0  0  0  0
    8.0734   13.7905   24.1432 N   0  0  0  0  0  0  0  0  0  0  0  0
    6.8021   13.3473   24.0961 C   0  0  0  0  0  0  0  0  0  0  0  0
    6.3303   12.1964   23.5184 N   0  0  0  0  0  0  0  0  0  0  0  0
    3.9542   15.7177   25.4711 H   0  0  0  0  0  0  0  0  0  0  0  0
    5.1114   16.9240   25.9347 H   0  0  0  0  0  0  0  0  0  0  0  0
    4.0973   10.9337   23.4908 C   0  0  0  0  0  0  0  0  0  0  0  0
    2.0875   10.5843   25.0272 C   0  0  0  0  0  0  0  0  0  0  0  0
    0.7350   10.8008   25.3113 C   0  0  0  0  0  0  0  0  0  0  0  0
   -0.0663   11.5635   24.4525 C   0  0  0  0  0  0  0  0  0  0  0  0
    0.4797   12.1361   23.3084 C   0  0  0  0  0  0  0  0  0  0  0  0
    1.8295   11.9238   23.0245 C   0  0  0  0  0  0  0  0  0  0  0  0
    2.6441   11.1371   23.8624 C   0  0  0  0  0  0  0  0  0  0  0  0
    2.3940    8.7851   26.5576 C   0  0  0  0  0  0  0  0  0  0  0  0
    2.9419    9.8808   25.8349 O   0  0  0  0  0  0  0  0  0  0  0  0
   -0.1837   12.9157   22.4028 O   0  0  0  0  0  0  0  0  0  0  0  0
   -1.5493   12.6020   22.1622 C   0  0  0  0  0  0  0  0  0  0  0  0
    7.1739   11.2134   22.8689 C   0  0  0  0  0  0  0  0  0  0  0  0
    7.7876   10.1680   23.8062 C   0  0  0  0  0  0  0  0  0  0  0  0
    7.2926    8.7418   23.5566 C   0  0  0  0  0  0  0  0  0  0  0  0
    8.1717    7.7176   24.2581 C   0  0  0  0  0  0  0  0  0  0  0  0
  1  2  2  0  0  0  0
  1 10  1  0  0  0  0
  2  3  1  0  0  0  0
  3  4  1  0  0  0  0
  3  9  2  0  0  0  0
  4  5  1  0  0  0  0
  4  6  2  0  0  0  0
  5 11  1  0  0  0  0
  5 12  1  0  0  0  0
  6  7  1  0  0  0  0
  7  8  2  0  0  0  0
  8  9  1  0  0  0  0
  9 10  1  0  0  0  0
 10 24  1  0  0  0  0
 13  1  1  0  0  0  0
 14 15  1  0  0  0  0
 14 19  2  0  0  0  0
 15 16  2  0  0  0  0
 16 17  1  0  0  0  0
 17 22  1  0  0  0  0
 17 18  2  0  0  0  0
 18 19  1  0  0  0  0
 19 13  1  0  0  0  0
 20 21  1  0  0  0  0
 21 14  1  0  0  0  0
 22 23  1  0  0  0  0
 24 25  1  0  0  0  0
 25 26  1  0  0  0  0
 26 27  1  0  0  0  0
M  END
>  <minimizedAffinity>
-9.46068

$$$$
