# created with PyMOL 2.5.0
@<TRIPOS>MOLECULE
data/HSP90/cocry_dataset/1uyc_PU7_LIG.pdb
48 50 1                 
SMALL
USER_CHARGES
@<TRIPOS>ATOM
1	 H01	4.630	16.567	26.268	 H	1	UNK0	0.000	
2	 H12	0.148	8.160	27.179	 H	1	UNK0	0.000	
3	 H04	4.950	9.812	23.614	 H	1	UNK0	0.000	
4	 H03	8.864	15.543	24.945	 H	1	UNK0	0.000	
5	 H02	3.610	15.248	25.740	 H	1	UNK0	0.000	
6	 H11	0.522	12.803	21.412	 H	1	UNK0	0.000	
7	 H09	-0.084	12.445	23.046	 H	1	UNK0	0.000	
8	 H08	4.014	9.195	25.630	 H	1	UNK0	0.000	
9	 H15	8.133	11.857	22.430	 H	1	UNK0	0.000	
10	 H07	-0.148	9.922	26.375	 H	1	UNK0	0.000	
11	 H06	-0.280	11.274	24.299	 H	1	UNK0	0.000	
12	 H05	4.024	10.674	22.315	 H	1	UNK0	0.000	
13	 H23	7.981	8.296	25.361	 H	1	UNK0	0.000	
14	 H14	0.731	8.807	28.731	 H	1	UNK0	0.000	
15	 H18	9.067	10.534	23.899	 H	1	UNK0	0.000	
16	 H17	7.470	10.243	24.709	 H	1	UNK0	0.000	
17	 H16	6.813	10.657	22.066	 H	1	UNK0	0.000	
18	 H19	8.976	8.565	22.816	 H	1	UNK0	0.000	
19	 H22	8.461	6.952	24.297	 H	1	UNK0	0.000	
20	 H21	6.754	7.449	24.389	 H	1	UNK0	0.000	
21	 H20	7.206	8.670	22.542	 H	1	UNK0	0.000	
22	 H10	1.165	13.691	22.815	 H	1	UNK0	0.000	
23	 H13	1.172	7.156	28.233	 H	1	UNK0	0.000	
24	   C	5.045	11.906	23.702	C.2	1	UNK0	0.000	
25	   N	4.511	12.950	24.323	N.2	1	UNK0	0.000	
26	   C	5.558	13.807	24.575	C.2	1	UNK0	0.000	
27	   C	5.629	15.047	25.241	C.2	1	UNK0	0.000	
28	   N	4.522	15.678	25.801	N.pl3	1	UNK0	0.000	
29	   N	6.833	15.653	25.343	N.2	1	UNK0	0.000	
30	   C	7.911	15.029	24.817	C.2	1	UNK0	0.000	
31	   N	7.963	13.857	24.156	N.2	1	UNK0	0.000	
32	   C	6.741	13.297	24.071	C.2	1	UNK0	0.000	
33	   N	6.394	12.114	23.469	N.pl3	1	UNK0	0.000	
34	   C	4.292	10.647	23.371	C.3	1	UNK0	0.000	
35	   C	1.803	11.032	23.797	C.2	1	UNK0	0.000	
36	   C	0.670	10.828	24.592	C.2	1	UNK0	0.000	
37	   C	0.741	10.057	25.760	C.2	1	UNK0	0.000	
38	   C	1.942	9.465	26.136	C.2	1	UNK0	0.000	
39	   C	3.073	9.664	25.343	C.2	1	UNK0	0.000	
40	   C	3.027	10.458	24.181	C.2	1	UNK0	0.000	
41	   C	0.793	12.728	22.465	C.3	1	UNK0	0.000	
42	   O	1.805	11.741	22.625	O.3	1	UNK0	0.000	
43	   O	2.141	8.676	27.235	O.3	1	UNK0	0.000	
44	   C	0.981	8.170	27.882	C.3	1	UNK0	0.000	
45	   C	7.343	11.224	22.831	C.3	1	UNK0	0.000	
46	   C	8.028	10.228	23.773	C.3	1	UNK0	0.000	
47	   C	8.010	8.783	23.270	C.3	1	UNK0	0.000	
48	   C	7.786	7.801	24.410	C.3	1	UNK0	0.000	
@<TRIPOS>BOND
1 24 25 2
2 24 33 1
3 25 26 1
4 26 27 1
5 26 32 2
6 27 28 1
7 27 29 2
8 1 28 1
9 5 28 1
10 29 30 1
11 4 30 1
12 30 31 2
13 31 32 1
14 32 33 1
15 33 45 1
16 3 34 1
17 12 34 1
18 24 34 1
19 35 36 1
20 35 40 2
21 11 36 1
22 36 37 2
23 10 37 1
24 37 38 1
25 38 39 2
26 38 43 1
27 8 39 1
28 39 40 1
29 34 40 1
30 6 41 1
31 7 41 1
32 22 41 1
33 41 42 1
34 35 42 1
35 43 44 1
36 2 44 1
37 14 44 1
38 23 44 1
39 9 45 1
40 17 45 1
41 45 46 1
42 15 46 1
43 16 46 1
44 46 47 1
45 18 47 1
46 21 47 1
47 47 48 1
48 13 48 1
49 19 48 1
50 20 48 1
@<TRIPOS>SUBSTRUCTURE
1	UNK0	1	GROUP	1 ****	UNK
