data/HSP90/cocry_dataset/1uyd_PU8_LIG.pdb
 OpenBabel03092321123D

 30 32  0  0  0  0  0  0  0  0999 V2000
    6.9685   12.4362   24.0069 C   0  0  0  0  0  0  0  0  0  0  0  0
    5.6532   12.5256   23.8520 N   0  0  0  0  0  0  0  0  0  0  0  0
    5.2788   13.6679   24.5220 C   0  0  0  0  0  0  0  0  0  0  0  0
    4.0223   14.2245   24.8260 C   0  0  0  0  0  0  0  0  0  0  0  0
    2.8173   13.6374   24.4678 N   0  0  0  0  0  0  0  0  0  0  0  0
    3.9824   15.3799   25.5281 N   0  0  0  0  0  0  0  0  0  0  0  0
    5.1512   15.9276   25.9256 C   0  0  0  0  0  0  0  0  0  0  0  0
    6.4053   15.4821   25.7047 N   0  0  0  0  0  0  0  0  0  0  0  0
    6.3905   14.3406   24.9969 C   0  0  0  0  0  0  0  0  0  0  0  0
    7.4629   13.5579   24.6456 N   0  0  0  0  0  0  0  0  0  0  0  0
    2.8917   12.9918   23.6892 H   0  0  0  0  0  0  0  0  0  0  0  0
    2.0469   14.2918   24.4813 H   0  0  0  0  0  0  0  0  0  0  0  0
    7.7836   11.2219   23.6472 C   0  0  0  0  0  0  0  0  0  0  0  0
    5.2462    9.0685   21.7182 C   0  0  0  0  0  0  0  0  0  0  0  0
    6.3244    9.9532   21.9634 C   0  0  0  0  0  0  0  0  0  0  0  0
    6.8853   10.0646   23.2421 C   0  0  0  0  0  0  0  0  0  0  0  0
    6.5366    9.0939   24.1925 C   0  0  0  0  0  0  0  0  0  0  0  0
    5.6079    8.0863   23.9050 C   0  0  0  0  0  0  0  0  0  0  0  0
    4.9031    8.0936   22.6825 C   0  0  0  0  0  0  0  0  0  0  0  0
    7.0710   10.8058   20.6363 Cl  0  0  0  0  0  0  0  0  0  0  0  0
    4.5482    7.8591   19.8238 C   0  0  0  0  0  0  0  0  0  0  0  0
    4.5799    9.1183   20.5136 O   0  0  0  0  0  0  0  0  0  0  0  0
    3.9303    7.1361   22.5842 O   0  0  0  0  0  0  0  0  0  0  0  0
    2.6767    7.2986   23.2240 C   0  0  0  0  0  0  0  0  0  0  0  0
    5.4249    7.2157   24.9543 O   0  0  0  0  0  0  0  0  0  0  0  0
    6.3297    6.1180   25.0331 C   0  0  0  0  0  0  0  0  0  0  0  0
    8.8274   13.7974   25.0974 C   0  0  0  0  0  0  0  0  0  0  0  0
    9.0837   15.2270   25.4856 C   0  0  0  0  0  0  0  0  0  0  0  0
   10.0471   15.6724   26.3088 C   0  0  0  0  0  0  0  0  0  0  0  0
   11.0850   14.8621   27.0187 C   0  0  0  0  0  0  0  0  0  0  0  0
  1  2  2  0  0  0  0
  1 10  1  0  0  0  0
  2  3  1  0  0  0  0
  3  4  1  0  0  0  0
  3  9  2  0  0  0  0
  4  5  1  0  0  0  0
  4  6  2  0  0  0  0
  5 11  1  0  0  0  0
  5 12  1  0  0  0  0
  6  7  1  0  0  0  0
  7  8  2  0  0  0  0
  8  9  1  0  0  0  0
  9 10  1  0  0  0  0
 10 27  1  0  0  0  0
 13  1  1  0  0  0  0
 14 15  1  0  0  0  0
 14 19  2  0  0  0  0
 15 16  2  0  0  0  0
 15 20  1  0  0  0  0
 16 17  1  0  0  0  0
 16 13  1  0  0  0  0
 17 18  2  0  0  0  0
 18 19  1  0  0  0  0
 18 25  1  0  0  0  0
 19 23  1  0  0  0  0
 21 22  1  0  0  0  0
 22 14  1  0  0  0  0
 23 24  1  0  0  0  0
 25 26  1  0  0  0  0
 27 28  1  0  0  0  0
 28 29  2  0  0  0  0
 29 30  1  0  0  0  0
M  END
>  <minimizedAffinity>
-9.81644

$$$$
