# created with PyMOL 2.5.0
@<TRIPOS>MOLECULE
data/HSP90/cocry_dataset/1uyd_PU8_LIG.pdb
50 52 1                 
SMALL
USER_CHARGES
@<TRIPOS>ATOM
1	 H21	7.371	7.719	22.509	 H	1	UNK0	0.000	
2	 H22	6.629	7.354	24.086	 H	1	UNK0	0.000	
3	 H19	8.498	8.635	24.848	 H	1	UNK0	0.000	
4	 H08	1.047	6.840	25.216	 H	1	UNK0	0.000	
5	 H20	6.019	8.709	23.106	 H	1	UNK0	0.000	
6	 H01	4.809	16.413	26.551	 H	1	UNK0	0.000	
7	 H05	4.359	10.441	22.322	 H	1	UNK0	0.000	
8	 H04	4.792	9.849	23.955	 H	1	UNK0	0.000	
9	 H11	-1.425	10.310	26.309	 H	1	UNK0	0.000	
10	 H03	8.929	15.528	24.863	 H	1	UNK0	0.000	
11	 H09	-0.701	7.020	24.930	 H	1	UNK0	0.000	
12	 H02	3.750	15.138	25.991	 H	1	UNK0	0.000	
13	 H10	-2.983	10.516	25.473	 H	1	UNK0	0.000	
14	 H07	0.465	7.680	23.759	 H	1	UNK0	0.000	
15	 H14	0.941	12.470	21.138	 H	1	UNK0	0.000	
16	 H13	-0.072	13.933	21.171	 H	1	UNK0	0.000	
17	 H12	-2.041	11.944	25.965	 H	1	UNK0	0.000	
18	 H15	-0.832	12.324	21.200	 H	1	UNK0	0.000	
19	 H18	8.837	10.882	24.407	 H	1	UNK0	0.000	
20	 H17	6.803	10.546	22.126	 H	1	UNK0	0.000	
21	 H16	8.096	11.803	22.269	 H	1	UNK0	0.000	
22	 H06	2.509	12.530	22.644	 H	1	UNK0	0.000	
23	   C	5.062	11.934	23.666	C.2	1	UNK0	0.000	
24	   N	4.545	12.973	24.311	N.2	1	UNK0	0.000	
25	   C	5.604	13.813	24.569	C.2	1	UNK0	0.000	
26	   C	5.719	14.996	25.322	C.2	1	UNK0	0.000	
27	   N	4.663	15.568	26.017	N.pl3	1	UNK0	0.000	
28	   N	6.929	15.597	25.396	N.2	1	UNK0	0.000	
29	   C	7.972	15.016	24.765	C.2	1	UNK0	0.000	
30	   N	7.984	13.886	24.029	N.2	1	UNK0	0.000	
31	   C	6.760	13.334	23.978	C.2	1	UNK0	0.000	
32	   N	6.399	12.148	23.389	N.pl3	1	UNK0	0.000	
33	   C	4.320	10.653	23.390	C.3	1	UNK0	0.000	
34	   C	0.859	9.775	24.821	C.2	1	UNK0	0.000	
35	   C	2.268	9.847	24.699	C.2	1	UNK0	0.000	
36	   C	2.867	10.762	23.824	C.2	1	UNK0	0.000	
37	   C	2.058	11.773	23.285	C.2	1	UNK0	0.000	
38	   C	0.685	11.832	23.551	C.2	1	UNK0	0.000	
39	   C	0.053	10.799	24.275	C.2	1	UNK0	0.000	
40	  Cl	3.284	8.899	25.756	Cl	1	UNK0	0.000	
41	   C	0.273	7.495	24.816	C.3	1	UNK0	0.000	
42	   O	0.285	8.742	25.529	O.3	1	UNK0	0.000	
43	   O	-1.310	10.909	24.346	O.3	1	UNK0	0.000	
44	   C	-1.978	10.921	25.595	C.3	1	UNK0	0.000	
45	   O	0.074	12.912	22.957	O.3	1	UNK0	0.000	
46	   C	0.025	12.909	21.533	C.3	1	UNK0	0.000	
47	   C	7.347	11.212	22.796	C.3	1	UNK0	0.000	
48	   C	8.074	10.378	23.814	C.2	1	UNK0	0.000	
49	   C	7.879	9.073	24.066	C.2	1	UNK0	0.000	
50	   C	6.909	8.151	23.396	C.3	1	UNK0	0.000	
@<TRIPOS>BOND
1 23 24 2
2 23 32 1
3 24 25 1
4 25 26 1
5 25 31 2
6 26 27 1
7 26 28 2
8 6 27 1
9 12 27 1
10 28 29 1
11 10 29 1
12 29 30 2
13 30 31 1
14 31 32 1
15 32 47 1
16 7 33 1
17 8 33 1
18 23 33 1
19 34 35 1
20 34 39 2
21 35 36 2
22 35 40 1
23 33 36 1
24 36 37 1
25 22 37 1
26 37 38 2
27 38 39 1
28 38 45 1
29 39 43 1
30 4 41 1
31 11 41 1
32 14 41 1
33 41 42 1
34 34 42 1
35 43 44 1
36 9 44 1
37 13 44 1
38 17 44 1
39 45 46 1
40 15 46 1
41 16 46 1
42 18 46 1
43 20 47 1
44 21 47 1
45 47 48 1
46 19 48 1
47 48 49 2
48 3 49 1
49 49 50 1
50 1 50 1
51 2 50 1
52 5 50 1
@<TRIPOS>SUBSTRUCTURE
1	UNK0	1	GROUP	1 ****	UNK
