# created with PyMOL 2.5.0
@<TRIPOS>MOLECULE
data/HSP90/cocry_dataset/1uyd_PU8_LIG.pdb
50 52 1                 
SMALL
USER_CHARGES
@<TRIPOS>ATOM
1	 H21	10.131	14.638	27.842	 H	1	UNK0	0.000	
2	 H22	10.997	13.822	26.517	 H	1	UNK0	0.000	
3	 H19	10.168	16.645	25.894	 H	1	UNK0	0.000	
4	 H08	6.589	4.743	24.297	 H	1	UNK0	0.000	
5	 H20	11.641	15.332	27.203	 H	1	UNK0	0.000	
6	 H01	1.675	14.610	24.967	 H	1	UNK0	0.000	
7	 H05	7.570	11.459	22.466	 H	1	UNK0	0.000	
8	 H04	7.989	11.086	24.166	 H	1	UNK0	0.000	
9	 H11	2.976	5.715	24.236	 H	1	UNK0	0.000	
10	 H03	5.115	17.005	26.711	 H	1	UNK0	0.000	
11	 H09	6.729	6.279	25.186	 H	1	UNK0	0.000	
12	 H02	2.385	13.270	24.094	 H	1	UNK0	0.000	
13	 H10	1.583	6.328	23.314	 H	1	UNK0	0.000	
14	 H07	5.126	5.665	24.719	 H	1	UNK0	0.000	
15	 H14	2.746	10.508	24.862	 H	1	UNK0	0.000	
16	 H13	1.102	10.264	24.224	 H	1	UNK0	0.000	
17	 H12	2.389	7.374	24.507	 H	1	UNK0	0.000	
18	 H15	2.092	11.620	23.635	 H	1	UNK0	0.000	
19	 H18	8.546	15.860	24.440	 H	1	UNK0	0.000	
20	 H17	8.637	13.218	25.951	 H	1	UNK0	0.000	
21	 H16	9.103	13.230	24.203	 H	1	UNK0	0.000	
22	 H06	4.480	11.400	23.213	 H	1	UNK0	0.000	
23	   C	6.493	12.572	23.927	C.2	1	UNK0	0.000	
24	   N	5.186	12.784	23.842	N.2	1	UNK0	0.000	
25	   C	4.946	13.920	24.582	C.2	1	UNK0	0.000	
26	   C	3.760	14.568	24.973	C.2	1	UNK0	0.000	
27	   N	2.492	14.108	24.649	N.pl3	1	UNK0	0.000	
28	   N	3.856	15.686	25.728	N.2	1	UNK0	0.000	
29	   C	5.086	16.109	26.092	C.2	1	UNK0	0.000	
30	   N	6.284	15.567	25.788	N.2	1	UNK0	0.000	
31	   C	6.134	14.468	25.031	C.2	1	UNK0	0.000	
32	   N	7.115	13.613	24.591	N.pl3	1	UNK0	0.000	
33	   C	7.179	11.311	23.473	C.3	1	UNK0	0.000	
34	   C	5.767	7.740	23.242	C.2	1	UNK0	0.000	
35	   C	6.631	8.808	23.584	C.2	1	UNK0	0.000	
36	   C	6.210	10.139	23.463	C.2	1	UNK0	0.000	
37	   C	4.843	10.373	23.257	C.2	1	UNK0	0.000	
38	   C	3.933	9.320	23.107	C.2	1	UNK0	0.000	
39	   C	4.390	7.987	23.037	C.2	1	UNK0	0.000	
40	  Cl	8.183	8.476	24.310	Cl	1	UNK0	0.000	
41	   C	6.171	5.742	24.419	C.3	1	UNK0	0.000	
42	   O	6.260	6.455	23.176	O.3	1	UNK0	0.000	
43	   O	3.416	7.068	22.752	O.3	1	UNK0	0.000	
44	   C	2.541	6.594	23.760	C.3	1	UNK0	0.000	
45	   O	2.638	9.754	22.945	O.3	1	UNK0	0.000	
46	   C	2.114	10.585	23.977	C.3	1	UNK0	0.000	
47	   C	8.514	13.709	24.985	C.3	1	UNK0	0.000	
48	   C	9.003	15.126	25.104	C.2	1	UNK0	0.000	
49	   C	9.948	15.579	25.945	C.2	1	UNK0	0.000	
50	   C	10.732	14.789	26.944	C.3	1	UNK0	0.000	
@<TRIPOS>BOND
1 23 24 2
2 23 32 1
3 24 25 1
4 25 26 1
5 25 31 2
6 26 27 1
7 26 28 2
8 6 27 1
9 12 27 1
10 28 29 1
11 10 29 1
12 29 30 2
13 30 31 1
14 31 32 1
15 32 47 1
16 7 33 1
17 8 33 1
18 23 33 1
19 34 35 1
20 34 39 2
21 35 36 2
22 35 40 1
23 33 36 1
24 36 37 1
25 22 37 1
26 37 38 2
27 38 39 1
28 38 45 1
29 39 43 1
30 4 41 1
31 11 41 1
32 14 41 1
33 41 42 1
34 34 42 1
35 43 44 1
36 9 44 1
37 13 44 1
38 17 44 1
39 45 46 1
40 15 46 1
41 16 46 1
42 18 46 1
43 20 47 1
44 21 47 1
45 47 48 1
46 19 48 1
47 48 49 2
48 3 49 1
49 49 50 1
50 1 50 1
51 2 50 1
52 5 50 1
@<TRIPOS>SUBSTRUCTURE
1	UNK0	1	GROUP	1 ****	UNK
