data/HSP90/cocry_dataset/1uye_PU9_LIG.pdb
 OpenBabel03092321123D

 31 33  0  0  0  0  0  0  0  0999 V2000
    6.4611   12.5797   23.9552 C   0  0  0  0  0  0  0  0  0  0  0  0
    5.1573   12.7816   23.8360 N   0  0  0  0  0  0  0  0  0  0  0  0
    4.8787   13.9059   24.5726 C   0  0  0  0  0  0  0  0  0  0  0  0
    3.6749   14.5189   24.9520 C   0  0  0  0  0  0  0  0  0  0  0  0
    2.4287   14.0069   24.6199 N   0  0  0  0  0  0  0  0  0  0  0  0
    3.7289   15.6415   25.7040 N   0  0  0  0  0  0  0  0  0  0  0  0
    4.9437   16.1007   26.0769 C   0  0  0  0  0  0  0  0  0  0  0  0
    6.1579   15.5908   25.7887 N   0  0  0  0  0  0  0  0  0  0  0  0
    6.0493   14.4854   25.0364 C   0  0  0  0  0  0  0  0  0  0  0  0
    7.0531   13.6491   24.6108 N   0  0  0  0  0  0  0  0  0  0  0  0
    2.4476   13.3690   23.8320 H   0  0  0  0  0  0  0  0  0  0  0  0
    1.6958   14.7009   24.6616 H   0  0  0  0  0  0  0  0  0  0  0  0
    7.1611   11.3201   23.5004 C   0  0  0  0  0  0  0  0  0  0  0  0
    8.2211    8.5064   24.2756 Cl  0  0  0  0  0  0  0  0  0  0  0  0
    6.6748    8.7931   23.5299 C   0  0  0  0  0  0  0  0  0  0  0  0
    5.8208    7.7081   23.2103 C   0  0  0  0  0  0  0  0  0  0  0  0
    4.4456    7.9444   22.9610 C   0  0  0  0  0  0  0  0  0  0  0  0
    3.9636    9.2679   23.0273 C   0  0  0  0  0  0  0  0  0  0  0  0
    4.8626   10.3293   23.2180 C   0  0  0  0  0  0  0  0  0  0  0  0
    6.2326   10.1207   23.4128 C   0  0  0  0  0  0  0  0  0  0  0  0
    6.2636    6.4050   23.2389 O   0  0  0  0  0  0  0  0  0  0  0  0
    6.1950    5.7481   24.5072 C   0  0  0  0  0  0  0  0  0  0  0  0
    3.5026    6.9997   22.6570 O   0  0  0  0  0  0  0  0  0  0  0  0
    2.5784    6.5329   23.6227 C   0  0  0  0  0  0  0  0  0  0  0  0
    2.6701    9.7182   22.9164 O   0  0  0  0  0  0  0  0  0  0  0  0
    2.0882   10.4740   23.9691 C   0  0  0  0  0  0  0  0  0  0  0  0
    8.4347   13.7823   25.0198 C   0  0  0  0  0  0  0  0  0  0  0  0
    9.0221   15.1864   24.8392 C   0  0  0  0  0  0  0  0  0  0  0  0
    9.4865   15.7722   26.1765 C   0  0  0  0  0  0  0  0  0  0  0  0
   10.7621   15.0708   26.6137 C   0  0  0  0  0  0  0  0  0  0  0  0
   11.8563   14.4690   26.9887 C   0  0  0  0  0  0  0  0  0  0  0  0
  1  2  2  0  0  0  0
  1 10  1  0  0  0  0
  2  3  1  0  0  0  0
  3  4  1  0  0  0  0
  3  9  2  0  0  0  0
  4  5  1  0  0  0  0
  4  6  2  0  0  0  0
  5 11  1  0  0  0  0
  5 12  1  0  0  0  0
  6  7  1  0  0  0  0
  7  8  2  0  0  0  0
  8  9  1  0  0  0  0
  9 10  1  0  0  0  0
 10 27  1  0  0  0  0
 13  1  1  0  0  0  0
 14 15  1  0  0  0  0
 15 16  1  0  0  0  0
 15 20  2  0  0  0  0
 16 21  1  0  0  0  0
 16 17  2  0  0  0  0
 17 23  1  0  0  0  0
 17 18  1  0  0  0  0
 18 25  1  0  0  0  0
 18 19  2  0  0  0  0
 19 20  1  0  0  0  0
 20 13  1  0  0  0  0
 21 22  1  0  0  0  0
 23 24  1  0  0  0  0
 25 26  1  0  0  0  0
 27 28  1  0  0  0  0
 28 29  1  0  0  0  0
 29 30  1  0  0  0  0
 30 31  3  0  0  0  0
M  END
>  <minimizedAffinity>
-10.00246

$$$$
