# created with PyMOL 2.5.0
@<TRIPOS>MOLECULE
data/HSP90/cocry_dataset/1uye_PU9_LIG.pdb
51 53 1                 
SMALL
USER_CHARGES
@<TRIPOS>ATOM
1	   C	6.461	12.580	23.955	C.2	1	UNK0	0.000	
2	   N	5.157	12.782	23.836	N.2	1	UNK0	0.000	
3	   C	4.879	13.906	24.573	C.2	1	UNK0	0.000	
4	   C	3.675	14.519	24.952	C.2	1	UNK0	0.000	
5	   N	2.429	14.007	24.620	N.pl3	1	UNK0	0.000	
6	   N	3.729	15.642	25.704	N.2	1	UNK0	0.000	
7	   C	4.944	16.101	26.077	C.2	1	UNK0	0.000	
8	   N	6.158	15.591	25.789	N.2	1	UNK0	0.000	
9	   C	6.049	14.485	25.036	C.2	1	UNK0	0.000	
10	   N	7.053	13.649	24.611	N.pl3	1	UNK0	0.000	
11	   C	7.161	11.320	23.500	C.3	1	UNK0	0.000	
12	  Cl	8.221	8.506	24.276	Cl	1	UNK0	0.000	
13	   C	6.675	8.793	23.530	C.2	1	UNK0	0.000	
14	   C	5.821	7.708	23.210	C.2	1	UNK0	0.000	
15	   C	4.446	7.944	22.961	C.2	1	UNK0	0.000	
16	   C	3.964	9.268	23.027	C.2	1	UNK0	0.000	
17	   C	4.863	10.329	23.218	C.2	1	UNK0	0.000	
18	   C	6.233	10.121	23.413	C.2	1	UNK0	0.000	
19	   O	6.264	6.405	23.239	O.3	1	UNK0	0.000	
20	   C	6.195	5.748	24.507	C.3	1	UNK0	0.000	
21	   O	3.503	7.000	22.657	O.3	1	UNK0	0.000	
22	   C	2.578	6.533	23.623	C.3	1	UNK0	0.000	
23	   O	2.670	9.718	22.916	O.3	1	UNK0	0.000	
24	   C	2.088	10.474	23.969	C.3	1	UNK0	0.000	
25	   C	8.435	13.782	25.020	C.3	1	UNK0	0.000	
26	   C	9.022	15.186	24.839	C.3	1	UNK0	0.000	
27	   C	9.486	15.772	26.177	C.3	1	UNK0	0.000	
28	   C	10.762	15.071	26.614	C.1	1	UNK0	0.000	
29	   C	11.856	14.469	26.989	C.1	1	UNK0	0.000	
30	 H01	1.590	14.478	24.928	 H	1	UNK0	0.000	
31	 H02	2.360	13.163	24.070	 H	1	UNK0	0.000	
32	 H03	4.942	17.001	26.691	 H	1	UNK0	0.000	
33	 H04	7.546	11.507	22.498	 H	1	UNK0	0.000	
34	 H05	7.959	11.091	24.207	 H	1	UNK0	0.000	
35	 H06	4.481	11.350	23.214	 H	1	UNK0	0.000	
36	 H07	5.174	5.797	24.886	 H	1	UNK0	0.000	
37	 H08	6.490	4.705	24.393	 H	1	UNK0	0.000	
38	 H09	6.866	6.242	25.210	 H	1	UNK0	0.000	
39	 H10	1.635	6.288	23.134	 H	1	UNK0	0.000	
40	 H11	2.977	5.642	24.107	 H	1	UNK0	0.000	
41	 H12	2.409	7.309	24.370	 H	1	UNK0	0.000	
42	 H13	1.080	10.108	24.164	 H	1	UNK0	0.000	
43	 H14	2.693	10.369	24.870	 H	1	UNK0	0.000	
44	 H15	2.044	11.524	23.681	 H	1	UNK0	0.000	
45	 H16	9.012	13.121	24.374	 H	1	UNK0	0.000	
46	 H17	8.505	13.517	26.075	 H	1	UNK0	0.000	
47	 H18	8.246	15.834	24.432	 H	1	UNK0	0.000	
48	 H19	9.873	15.131	24.160	 H	1	UNK0	0.000	
49	 H20	8.712	15.625	26.929	 H	1	UNK0	0.000	
50	 H21	9.677	16.839	26.061	 H	1	UNK0	0.000	
51	 H22	12.771	13.966	27.302	 H	1	UNK0	0.000	
@<TRIPOS>BOND
1 12 13 1
2 13 14 1
3 13 18 2
4 14 19 1
5 14 15 2
6 19 20 1
7 15 21 1
8 15 16 1
9 21 22 1
10 16 23 1
11 16 17 2
12 23 24 1
13 17 18 1
14 11 18 1
15 1 11 1
16 1 2 2
17 1 10 1
18 2 3 1
19 3 4 1
20 3 9 2
21 4 5 1
22 4 6 2
23 6 7 1
24 7 8 2
25 8 9 1
26 9 10 1
27 10 25 1
28 25 26 1
29 26 27 1
30 27 28 1
31 28 29 3
32 5 30 1
33 5 31 1
34 7 32 1
35 11 33 1
36 11 34 1
37 17 35 1
38 20 36 1
39 20 37 1
40 20 38 1
41 22 39 1
42 22 40 1
43 22 41 1
44 24 42 1
45 24 43 1
46 24 44 1
47 25 45 1
48 25 46 1
49 26 47 1
50 26 48 1
51 27 49 1
52 27 50 1
53 29 51 1
@<TRIPOS>SUBSTRUCTURE
1	UNK0	1	GROUP	1 ****	UNK
