# created with PyMOL 2.5.0
@<TRIPOS>MOLECULE
data/HSP90/cocry_dataset/1uye_PU9_LIG.pdb
51 53 1                 
SMALL
USER_CHARGES
@<TRIPOS>ATOM
1	 H20	8.712	15.625	26.929	 H	1	UNK0	0.000	
2	 H21	9.677	16.839	26.061	 H	1	UNK0	0.000	
3	 H18	8.246	15.834	24.432	 H	1	UNK0	0.000	
4	 H22	12.771	13.966	27.302	 H	1	UNK0	0.000	
5	 H01	1.590	14.478	24.928	 H	1	UNK0	0.000	
6	 H19	9.873	15.131	24.160	 H	1	UNK0	0.000	
7	 H04	7.924	11.087	24.243	 H	1	UNK0	0.000	
8	 H03	4.942	17.001	26.691	 H	1	UNK0	0.000	
9	 H10	1.635	6.288	23.134	 H	1	UNK0	0.000	
10	 H02	2.360	13.163	24.070	 H	1	UNK0	0.000	
11	 H08	6.490	4.705	24.393	 H	1	UNK0	0.000	
12	 H07	5.174	5.797	24.886	 H	1	UNK0	0.000	
13	 H06	4.481	11.350	23.214	 H	1	UNK0	0.000	
14	 H09	6.866	6.242	25.210	 H	1	UNK0	0.000	
15	 H13	1.080	10.108	24.164	 H	1	UNK0	0.000	
16	 H12	2.409	7.309	24.370	 H	1	UNK0	0.000	
17	 H11	2.977	5.642	24.107	 H	1	UNK0	0.000	
18	 H14	2.693	10.369	24.870	 H	1	UNK0	0.000	
19	 H17	8.505	13.517	26.075	 H	1	UNK0	0.000	
20	 H16	9.012	13.121	24.374	 H	1	UNK0	0.000	
21	 H15	2.044	11.524	23.681	 H	1	UNK0	0.000	
22	 H05	7.592	11.498	22.515	 H	1	UNK0	0.000	
23	   C	6.461	12.580	23.955	C.2	1	UNK0	0.000	
24	   N	5.157	12.782	23.836	N.2	1	UNK0	0.000	
25	   C	4.879	13.906	24.573	C.2	1	UNK0	0.000	
26	   C	3.675	14.519	24.952	C.2	1	UNK0	0.000	
27	   N	2.429	14.007	24.620	N.pl3	1	UNK0	0.000	
28	   N	3.729	15.642	25.704	N.2	1	UNK0	0.000	
29	   C	4.944	16.101	26.077	C.2	1	UNK0	0.000	
30	   N	6.158	15.591	25.789	N.2	1	UNK0	0.000	
31	   C	6.049	14.485	25.036	C.2	1	UNK0	0.000	
32	   N	7.053	13.649	24.611	N.pl3	1	UNK0	0.000	
33	   C	7.161	11.320	23.500	C.3	1	UNK0	0.000	
34	  Cl	8.221	8.506	24.276	Cl	1	UNK0	0.000	
35	   C	6.675	8.793	23.530	C.2	1	UNK0	0.000	
36	   C	5.821	7.708	23.210	C.2	1	UNK0	0.000	
37	   C	4.446	7.944	22.961	C.2	1	UNK0	0.000	
38	   C	3.964	9.268	23.027	C.2	1	UNK0	0.000	
39	   C	4.863	10.329	23.218	C.2	1	UNK0	0.000	
40	   C	6.233	10.121	23.413	C.2	1	UNK0	0.000	
41	   O	6.264	6.405	23.239	O.3	1	UNK0	0.000	
42	   C	6.195	5.748	24.507	C.3	1	UNK0	0.000	
43	   O	3.503	7.000	22.657	O.3	1	UNK0	0.000	
44	   C	2.578	6.533	23.623	C.3	1	UNK0	0.000	
45	   O	2.670	9.718	22.916	O.3	1	UNK0	0.000	
46	   C	2.088	10.474	23.969	C.3	1	UNK0	0.000	
47	   C	8.435	13.782	25.020	C.3	1	UNK0	0.000	
48	   C	9.022	15.186	24.839	C.3	1	UNK0	0.000	
49	   C	9.486	15.772	26.177	C.3	1	UNK0	0.000	
50	   C	10.762	15.071	26.614	C.1	1	UNK0	0.000	
51	   C	11.856	14.469	26.989	C.1	1	UNK0	0.000	
@<TRIPOS>BOND
1 23 24 2
2 23 32 1
3 24 25 1
4 25 26 1
5 25 31 2
6 26 27 1
7 26 28 2
8 5 27 1
9 10 27 1
10 28 29 1
11 8 29 1
12 29 30 2
13 30 31 1
14 31 32 1
15 32 47 1
16 7 33 1
17 22 33 1
18 23 33 1
19 34 35 1
20 35 36 1
21 35 40 2
22 36 37 2
23 36 41 1
24 37 38 1
25 37 43 1
26 38 39 2
27 38 45 1
28 13 39 1
29 39 40 1
30 33 40 1
31 41 42 1
32 11 42 1
33 12 42 1
34 14 42 1
35 43 44 1
36 9 44 1
37 16 44 1
38 17 44 1
39 45 46 1
40 15 46 1
41 18 46 1
42 21 46 1
43 19 47 1
44 20 47 1
45 47 48 1
46 3 48 1
47 6 48 1
48 48 49 1
49 1 49 1
50 2 49 1
51 49 50 1
52 50 51 3
53 4 51 1
@<TRIPOS>SUBSTRUCTURE
1	UNK0	1	GROUP	1 ****	UNK
