data/HSP90/cocry_dataset/1uye_PU9_LIG.pdb
 OpenBabel03092321123D

 31 33  0  0  0  0  0  0  0  0999 V2000
    5.1693   11.8437   23.6558 C   0  0  0  0  0  0  0  0  0  0  0  0
    4.5677   12.8673   24.2433 N   0  0  0  0  0  0  0  0  0  0  0  0
    5.5584   13.7696   24.5407 C   0  0  0  0  0  0  0  0  0  0  0  0
    5.5692   14.9561   25.2898 C   0  0  0  0  0  0  0  0  0  0  0  0
    4.4484   15.4466   25.9445 N   0  0  0  0  0  0  0  0  0  0  0  0
    6.7319   15.6363   25.4084 N   0  0  0  0  0  0  0  0  0  0  0  0
    7.8341   15.1213   24.8207 C   0  0  0  0  0  0  0  0  0  0  0  0
    7.9474   13.9905   24.0956 N   0  0  0  0  0  0  0  0  0  0  0  0
    6.7677   13.3588   24.0020 C   0  0  0  0  0  0  0  0  0  0  0  0
    6.5012   12.1458   23.4139 N   0  0  0  0  0  0  0  0  0  0  0  0
    3.5740   15.0818   25.5834 H   0  0  0  0  0  0  0  0  0  0  0  0
    4.5129   16.4344   26.1459 H   0  0  0  0  0  0  0  0  0  0  0  0
    4.4937   10.5220   23.3728 C   0  0  0  0  0  0  0  0  0  0  0  0
    3.5257    8.5110   25.5316 Cl  0  0  0  0  0  0  0  0  0  0  0  0
    2.4600    9.4964   24.5710 C   0  0  0  0  0  0  0  0  0  0  0  0
    1.0550    9.3928   24.7246 C   0  0  0  0  0  0  0  0  0  0  0  0
    0.2155   10.4262   24.2381 C   0  0  0  0  0  0  0  0  0  0  0  0
    0.8080   11.5342   23.5980 C   0  0  0  0  0  0  0  0  0  0  0  0
    2.1897   11.5399   23.3493 C   0  0  0  0  0  0  0  0  0  0  0  0
    3.0286   10.5034   23.7745 C   0  0  0  0  0  0  0  0  0  0  0  0
    0.4776    8.3630   25.4325 O   0  0  0  0  0  0  0  0  0  0  0  0
    0.3292    7.1264   24.7301 C   0  0  0  0  0  0  0  0  0  0  0  0
   -1.1498   10.4711   24.3269 O   0  0  0  0  0  0  0  0  0  0  0  0
   -1.8047   10.9737   25.4772 C   0  0  0  0  0  0  0  0  0  0  0  0
    0.2093   12.6818   23.1368 O   0  0  0  0  0  0  0  0  0  0  0  0
    0.1149   12.9219   21.7398 C   0  0  0  0  0  0  0  0  0  0  0  0
    7.5232   11.2749   22.8744 C   0  0  0  0  0  0  0  0  0  0  0  0
    8.0347   10.2092   23.8500 C   0  0  0  0  0  0  0  0  0  0  0  0
    8.0821    8.8272   23.1905 C   0  0  0  0  0  0  0  0  0  0  0  0
    7.5844    7.7844   24.1781 C   0  0  0  0  0  0  0  0  0  0  0  0
    7.1574    6.8898   25.0252 C   0  0  0  0  0  0  0  0  0  0  0  0
  1  2  2  0  0  0  0
  1 10  1  0  0  0  0
  2  3  1  0  0  0  0
  3  4  1  0  0  0  0
  3  9  2  0  0  0  0
  4  5  1  0  0  0  0
  4  6  2  0  0  0  0
  5 11  1  0  0  0  0
  5 12  1  0  0  0  0
  6  7  1  0  0  0  0
  7  8  2  0  0  0  0
  8  9  1  0  0  0  0
  9 10  1  0  0  0  0
 10 27  1  0  0  0  0
 13  1  1  0  0  0  0
 14 15  1  0  0  0  0
 15 16  1  0  0  0  0
 15 20  2  0  0  0  0
 16 21  1  0  0  0  0
 16 17  2  0  0  0  0
 17 23  1  0  0  0  0
 17 18  1  0  0  0  0
 18 25  1  0  0  0  0
 18 19  2  0  0  0  0
 19 20  1  0  0  0  0
 20 13  1  0  0  0  0
 21 22  1  0  0  0  0
 23 24  1  0  0  0  0
 25 26  1  0  0  0  0
 27 28  1  0  0  0  0
 28 29  1  0  0  0  0
 29 30  1  0  0  0  0
 30 31  3  0  0  0  0
M  END
>  <minimizedAffinity>
-9.95268

$$$$
