# created with PyMOL 2.5.0
@<TRIPOS>MOLECULE
data/HSP90/cocry_dataset/1uye_PU9_LIG.pdb
51 53 1                 
SMALL
USER_CHARGES
@<TRIPOS>ATOM
1	 H20	9.134	8.611	23.022	 H	1	UNK0	0.000	
2	 H21	7.517	8.786	22.306	 H	1	UNK0	0.000	
3	 H18	7.215	10.110	24.698	 H	1	UNK0	0.000	
4	 H22	6.706	6.076	25.677	 H	1	UNK0	0.000	
5	 H01	4.566	16.281	26.568	 H	1	UNK0	0.000	
6	 H19	8.914	10.498	24.276	 H	1	UNK0	0.000	
7	 H04	5.073	9.859	23.141	 H	1	UNK0	0.000	
8	 H03	8.840	15.454	25.247	 H	1	UNK0	0.000	
9	 H10	-0.987	8.234	26.877	 H	1	UNK0	0.000	
10	 H02	3.574	15.032	25.850	 H	1	UNK0	0.000	
11	 H08	-0.902	10.518	23.922	 H	1	UNK0	0.000	
12	 H07	-1.943	11.575	24.905	 H	1	UNK0	0.000	
13	 H06	4.424	8.611	24.916	 H	1	UNK0	0.000	
14	 H09	-1.490	9.963	25.509	 H	1	UNK0	0.000	
15	 H13	4.320	6.180	26.268	 H	1	UNK0	0.000	
16	 H12	-0.235	7.774	28.423	 H	1	UNK0	0.000	
17	 H11	0.513	7.277	26.886	 H	1	UNK0	0.000	
18	 H14	2.591	5.760	26.276	 H	1	UNK0	0.000	
19	 H17	7.006	10.706	22.038	 H	1	UNK0	0.000	
20	 H16	8.308	11.836	22.616	 H	1	UNK0	0.000	
21	 H15	3.266	6.727	24.942	 H	1	UNK0	0.000	
22	 H05	3.869	10.832	22.209	 H	1	UNK0	0.000	
23	   C	5.091	11.926	23.563	C.2	1	UNK0	0.000	
24	   N	4.525	12.961	24.166	N.2	1	UNK0	0.000	
25	   C	5.555	13.777	24.563	C.2	1	UNK0	0.000	
26	   C	5.601	14.924	25.371	C.2	1	UNK0	0.000	
27	   N	4.478	15.461	25.985	N.pl3	1	UNK0	0.000	
28	   N	6.797	15.515	25.588	N.2	1	UNK0	0.000	
29	   C	7.896	14.952	25.038	C.2	1	UNK0	0.000	
30	   N	7.976	13.851	24.265	N.2	1	UNK0	0.000	
31	   C	6.764	13.308	24.074	C.2	1	UNK0	0.000	
32	   N	6.452	12.145	23.411	N.pl3	1	UNK0	0.000	
33	   C	4.346	10.670	23.176	C.3	1	UNK0	0.000	
34	  Cl	1.504	11.901	22.951	Cl	1	UNK0	0.000	
35	   C	2.043	10.936	24.295	C.2	1	UNK0	0.000	
36	   C	1.181	10.690	25.393	C.2	1	UNK0	0.000	
37	   C	1.465	9.627	26.286	C.2	1	UNK0	0.000	
38	   C	2.615	8.842	26.062	C.2	1	UNK0	0.000	
39	   C	3.513	9.197	25.042	C.2	1	UNK0	0.000	
40	   C	3.278	10.276	24.183	C.2	1	UNK0	0.000	
41	   O	0.007	11.388	25.562	O.3	1	UNK0	0.000	
42	   C	-1.151	10.828	24.938	C.3	1	UNK0	0.000	
43	   O	0.720	9.262	27.375	O.3	1	UNK0	0.000	
44	   C	-0.041	8.068	27.391	C.3	1	UNK0	0.000	
45	   O	3.033	7.718	26.732	O.3	1	UNK0	0.000	
46	   C	3.319	6.527	26.013	C.3	1	UNK0	0.000	
47	   C	7.443	11.231	22.887	C.3	1	UNK0	0.000	
48	   C	7.943	10.186	23.891	C.3	1	UNK0	0.000	
49	   C	8.084	8.808	23.236	C.3	1	UNK0	0.000	
50	   C	7.549	7.747	24.184	C.1	1	UNK0	0.000	
51	   C	7.090	6.837	24.997	C.1	1	UNK0	0.000	
@<TRIPOS>BOND
1 23 24 2
2 23 32 1
3 24 25 1
4 25 26 1
5 25 31 2
6 26 27 1
7 26 28 2
8 5 27 1
9 10 27 1
10 28 29 1
11 8 29 1
12 29 30 2
13 30 31 1
14 31 32 1
15 32 47 1
16 7 33 1
17 22 33 1
18 23 33 1
19 34 35 1
20 35 36 1
21 35 40 2
22 36 37 2
23 36 41 1
24 37 38 1
25 37 43 1
26 38 39 2
27 38 45 1
28 13 39 1
29 39 40 1
30 33 40 1
31 41 42 1
32 11 42 1
33 12 42 1
34 14 42 1
35 43 44 1
36 9 44 1
37 16 44 1
38 17 44 1
39 45 46 1
40 15 46 1
41 18 46 1
42 21 46 1
43 19 47 1
44 20 47 1
45 47 48 1
46 3 48 1
47 6 48 1
48 48 49 1
49 1 49 1
50 2 49 1
51 49 50 1
52 50 51 3
53 4 51 1
@<TRIPOS>SUBSTRUCTURE
1	UNK0	1	GROUP	1 ****	UNK
