data/HSP90/cocry_dataset/1uyf_PU1_LIG.pdb
 OpenBabel03092321123D

 32 34  0  0  0  0  0  0  0  0999 V2000
    4.9339   12.0818   23.7008 C   0  0  0  0  0  0  0  0  0  0  0  0
    4.3313   13.0821   24.3232 N   0  0  0  0  0  0  0  0  0  0  0  0
    5.3305   13.9741   24.6762 C   0  0  0  0  0  0  0  0  0  0  0  0
    5.3462   15.1403   25.4669 C   0  0  0  0  0  0  0  0  0  0  0  0
    4.2317   15.6901   26.0829 N   0  0  0  0  0  0  0  0  0  0  0  0
    6.5302   15.7718   25.6558 N   0  0  0  0  0  0  0  0  0  0  0  0
    7.6400   15.2443   25.1033 C   0  0  0  0  0  0  0  0  0  0  0  0
    7.7379   14.1448   24.3313 N   0  0  0  0  0  0  0  0  0  0  0  0
    6.5433   13.5540   24.1745 C   0  0  0  0  0  0  0  0  0  0  0  0
    6.2816   12.3758   23.5237 N   0  0  0  0  0  0  0  0  0  0  0  0
    8.7909   15.8819   25.3721 F   0  0  0  0  0  0  0  0  0  0  0  0
    3.3483   15.4415   25.6660 H   0  0  0  0  0  0  0  0  0  0  0  0
    4.3814   16.6468   26.3739 H   0  0  0  0  0  0  0  0  0  0  0  0
    4.2776   10.7835   23.2694 C   0  0  0  0  0  0  0  0  0  0  0  0
    1.3522   11.7783   23.0601 Cl  0  0  0  0  0  0  0  0  0  0  0  0
    1.9731   10.8650   24.4081 C   0  0  0  0  0  0  0  0  0  0  0  0
    1.1461   10.5632   25.5185 C   0  0  0  0  0  0  0  0  0  0  0  0
    1.4689    9.4546   26.3404 C   0  0  0  0  0  0  0  0  0  0  0  0
    2.6293    8.7069   26.0457 C   0  0  0  0  0  0  0  0  0  0  0  0
    3.5256    9.1573   25.0633 C   0  0  0  0  0  0  0  0  0  0  0  0
    3.2390   10.2710   24.2609 C   0  0  0  0  0  0  0  0  0  0  0  0
   -0.0070   11.2534   25.8072 O   0  0  0  0  0  0  0  0  0  0  0  0
   -1.2196   10.8240   25.1881 C   0  0  0  0  0  0  0  0  0  0  0  0
    0.7675    9.0139   27.4331 O   0  0  0  0  0  0  0  0  0  0  0  0
   -0.0068    7.8275   27.3876 C   0  0  0  0  0  0  0  0  0  0  0  0
    3.0607    7.5632   26.6800 O   0  0  0  0  0  0  0  0  0  0  0  0
    3.5537    6.5038   25.8600 C   0  0  0  0  0  0  0  0  0  0  0  0
    7.3032   11.5376   22.9244 C   0  0  0  0  0  0  0  0  0  0  0  0
    7.8527   10.4716   23.8785 C   0  0  0  0  0  0  0  0  0  0  0  0
    8.0018    9.1124   23.1904 C   0  0  0  0  0  0  0  0  0  0  0  0
    7.6146    8.0232   24.0992 C   0  0  0  0  0  0  0  0  0  0  0  0
    7.3447    7.0774   24.7963 C   0  0  0  0  0  0  0  0  0  0  0  0
  1  2  2  0  0  0  0
  1 10  1  0  0  0  0
  2  3  1  0  0  0  0
  3  4  1  0  0  0  0
  3  9  2  0  0  0  0
  4  5  1  0  0  0  0
  4  6  2  0  0  0  0
  5 12  1  0  0  0  0
  5 13  1  0  0  0  0
  6  7  1  0  0  0  0
  7  8  2  0  0  0  0
  7 11  1  0  0  0  0
  8  9  1  0  0  0  0
  9 10  1  0  0  0  0
 10 28  1  0  0  0  0
 14  1  1  0  0  0  0
 15 16  1  0  0  0  0
 16 17  1  0  0  0  0
 16 21  2  0  0  0  0
 17 22  1  0  0  0  0
 17 18  2  0  0  0  0
 18 24  1  0  0  0  0
 18 19  1  0  0  0  0
 19 26  1  0  0  0  0
 19 20  2  0  0  0  0
 20 21  1  0  0  0  0
 21 14  1  0  0  0  0
 22 23  1  0  0  0  0
 24 25  1  0  0  0  0
 26 27  1  0  0  0  0
 28 29  1  0  0  0  0
 29 30  1  0  0  0  0
 30 31  1  0  0  0  0
 31 32  3  0  0  0  0
M  END
>  <minimizedAffinity>
-9.60808

$$$$
