# created with PyMOL 2.5.0
@<TRIPOS>MOLECULE
data/HSP90/cocry_dataset/1uyf_PU1_LIG.pdb
51 53 1                 
SMALL
USER_CHARGES
@<TRIPOS>ATOM
1	 H19	9.045	8.977	22.907	 H	1	UNK0	0.000	
2	 H03	5.064	10.031	23.209	 H	1	UNK0	0.000	
3	 H20	7.364	9.086	22.307	 H	1	UNK0	0.000	
4	 H17	7.146	10.358	24.701	 H	1	UNK0	0.000	
5	 H04	3.789	10.945	22.309	 H	1	UNK0	0.000	
6	 H18	8.829	10.792	24.242	 H	1	UNK0	0.000	
7	 H02	3.328	15.253	25.975	 H	1	UNK0	0.000	
8	 H01	4.324	16.528	26.639	 H	1	UNK0	0.000	
9	 H08	-1.576	9.917	25.676	 H	1	UNK0	0.000	
10	 H21	7.101	6.222	25.427	 H	1	UNK0	0.000	
11	 H06	-1.972	11.606	25.284	 H	1	UNK0	0.000	
12	 H05	4.468	8.628	24.921	 H	1	UNK0	0.000	
13	 H16	6.875	11.037	22.056	 H	1	UNK0	0.000	
14	 H07	-1.038	10.622	24.132	 H	1	UNK0	0.000	
15	 H11	-0.209	7.486	28.403	 H	1	UNK0	0.000	
16	 H10	0.541	7.056	26.846	 H	1	UNK0	0.000	
17	 H09	-0.949	8.029	26.878	 H	1	UNK0	0.000	
18	 H12	4.555	6.226	26.190	 H	1	UNK0	0.000	
19	 H15	8.136	12.188	22.655	 H	1	UNK0	0.000	
20	 H14	3.592	6.835	24.822	 H	1	UNK0	0.000	
21	 H13	2.892	5.642	25.943	 H	1	UNK0	0.000	
22	   C	4.934	12.082	23.701	C.2	1	UNK0	0.000	
23	   N	4.331	13.082	24.323	N.2	1	UNK0	0.000	
24	   C	5.331	13.974	24.676	C.2	1	UNK0	0.000	
25	   C	5.346	15.140	25.467	C.2	1	UNK0	0.000	
26	   N	4.232	15.690	26.083	N.pl3	1	UNK0	0.000	
27	   N	6.530	15.772	25.656	N.2	1	UNK0	0.000	
28	   C	7.640	15.244	25.103	C.2	1	UNK0	0.000	
29	   N	7.738	14.145	24.331	N.2	1	UNK0	0.000	
30	   C	6.543	13.554	24.174	C.2	1	UNK0	0.000	
31	   N	6.282	12.376	23.524	N.pl3	1	UNK0	0.000	
32	   F	8.791	15.882	25.372	 F	1	UNK0	0.000	
33	   C	4.278	10.783	23.269	C.3	1	UNK0	0.000	
34	  Cl	1.352	11.778	23.060	Cl	1	UNK0	0.000	
35	   C	1.973	10.865	24.408	C.2	1	UNK0	0.000	
36	   C	1.146	10.563	25.518	C.2	1	UNK0	0.000	
37	   C	1.469	9.455	26.340	C.2	1	UNK0	0.000	
38	   C	2.629	8.707	26.046	C.2	1	UNK0	0.000	
39	   C	3.526	9.157	25.063	C.2	1	UNK0	0.000	
40	   C	3.239	10.271	24.261	C.2	1	UNK0	0.000	
41	   O	-0.007	11.253	25.807	O.3	1	UNK0	0.000	
42	   C	-1.220	10.824	25.188	C.3	1	UNK0	0.000	
43	   O	0.767	9.014	27.433	O.3	1	UNK0	0.000	
44	   C	-0.007	7.827	27.388	C.3	1	UNK0	0.000	
45	   O	3.061	7.563	26.680	O.3	1	UNK0	0.000	
46	   C	3.554	6.504	25.860	C.3	1	UNK0	0.000	
47	   C	7.303	11.538	22.924	C.3	1	UNK0	0.000	
48	   C	7.853	10.472	23.878	C.3	1	UNK0	0.000	
49	   C	8.002	9.112	23.190	C.3	1	UNK0	0.000	
50	   C	7.615	8.023	24.099	C.1	1	UNK0	0.000	
51	   C	7.345	7.077	24.796	C.1	1	UNK0	0.000	
@<TRIPOS>BOND
1 22 23 2
2 22 31 1
3 23 24 1
4 24 25 1
5 24 30 2
6 25 26 1
7 25 27 2
8 7 26 1
9 8 26 1
10 27 28 1
11 28 29 2
12 28 32 1
13 29 30 1
14 30 31 1
15 31 47 1
16 2 33 1
17 5 33 1
18 22 33 1
19 34 35 1
20 35 36 1
21 35 40 2
22 36 37 2
23 36 41 1
24 37 38 1
25 37 43 1
26 38 39 2
27 38 45 1
28 12 39 1
29 39 40 1
30 33 40 1
31 41 42 1
32 9 42 1
33 11 42 1
34 14 42 1
35 43 44 1
36 15 44 1
37 16 44 1
38 17 44 1
39 45 46 1
40 18 46 1
41 20 46 1
42 21 46 1
43 13 47 1
44 19 47 1
45 47 48 1
46 4 48 1
47 6 48 1
48 48 49 1
49 1 49 1
50 3 49 1
51 49 50 1
52 50 51 3
53 10 51 1
@<TRIPOS>SUBSTRUCTURE
1	UNK0	1	GROUP	1 ****	UNK
