data/HSP90/cocry_dataset/1uyf_PU1_LIG.pdb


 32 34  0  0  0  0  0  0  0  0999 V2000
    5.1286   11.9531   23.7590 C   0  0  0  0  0  0  0  0  0  0  0  0
    4.5869   12.9965   24.3667 N   0  0  0  0  0  0  0  0  0  0  0  0
    5.6200   13.8919   24.5890 C   0  0  0  0  0  0  0  0  0  0  0  0
    5.7096   15.1011   25.3069 C   0  0  0  0  0  0  0  0  0  0  0  0
    4.6524   15.7021   25.9739 N   0  0  0  0  0  0  0  0  0  0  0  0
    6.9114   15.7243   25.3669 N   0  0  0  0  0  0  0  0  0  0  0  0
    7.9692   15.1493   24.7622 C   0  0  0  0  0  0  0  0  0  0  0  0
    7.9949   14.0061   24.0502 N   0  0  0  0  0  0  0  0  0  0  0  0
    6.7855   13.4254   24.0207 C   0  0  0  0  0  0  0  0  0  0  0  0
    6.4614   12.2160   23.4617 N   0  0  0  0  0  0  0  0  0  0  0  0
    9.1442   15.7838   24.9039 F   0  0  0  0  0  0  0  0  0  0  0  0
    3.7366   15.4434   25.6414 H   0  0  0  0  0  0  0  0  0  0  0  0
    4.8344   16.6715   26.1962 H   0  0  0  0  0  0  0  0  0  0  0  0
    4.4268   10.6423   23.4557 C   0  0  0  0  0  0  0  0  0  0  0  0
    3.3796    8.7970   25.7117 Cl  0  0  0  0  0  0  0  0  0  0  0  0
    2.3462    9.6706   24.6136 C   0  0  0  0  0  0  0  0  0  0  0  0
    0.9373    9.5372   24.6868 C   0  0  0  0  0  0  0  0  0  0  0  0
    0.1168   10.5689   24.1662 C   0  0  0  0  0  0  0  0  0  0  0  0
    0.7330   11.6828   23.5562 C   0  0  0  0  0  0  0  0  0  0  0  0
    2.1180   11.6819   23.3258 C   0  0  0  0  0  0  0  0  0  0  0  0
    2.9429   10.6545   23.8056 C   0  0  0  0  0  0  0  0  0  0  0  0
    0.3129    8.4804   25.3053 O   0  0  0  0  0  0  0  0  0  0  0  0
    0.4080    7.1934   24.6948 C   0  0  0  0  0  0  0  0  0  0  0  0
   -1.2538   10.6086   24.1761 O   0  0  0  0  0  0  0  0  0  0  0  0
   -1.9755   10.9979   25.3323 C   0  0  0  0  0  0  0  0  0  0  0  0
    0.1093   12.8078   23.0642 O   0  0  0  0  0  0  0  0  0  0  0  0
   -0.0423   12.9083   21.6483 C   0  0  0  0  0  0  0  0  0  0  0  0
    7.4243   11.3295   22.8353 C   0  0  0  0  0  0  0  0  0  0  0  0
    8.0782   10.3504   23.8164 C   0  0  0  0  0  0  0  0  0  0  0  0
    8.2020    8.9451   23.2224 C   0  0  0  0  0  0  0  0  0  0  0  0
    7.6131    7.9445   24.1247 C   0  0  0  0  0  0  0  0  0  0  0  0
    7.1876    7.0679   24.8346 C   0  0  0  0  0  0  0  0  0  0  0  0
 15 16  1  0  0  0
 16 17  1  0  0  0
 16 21  2  0  0  0
 17 22  1  0  0  0
 17 18  2  0  0  0
 22 23  1  0  0  0
 18 24  1  0  0  0
 18 19  1  0  0  0
 24 25  1  0  0  0
 19 26  1  0  0  0
 19 20  2  0  0  0
 26 27  1  0  0  0
 20 21  1  0  0  0
 21 14  1  0  0  0
 14  1  1  0  0  0
  1  2  2  0  0  0
  1 10  1  0  0  0
  2  3  1  0  0  0
  3  4  1  0  0  0
  3  9  2  0  0  0
  4  5  1  0  0  0
  4  6  2  0  0  0
  5 12  1  0  0  0
  5 13  1  0  0  0
  6  7  1  0  0  0
  7  8  2  0  0  0
  7 11  1  0  0  0
  8  9  1  0  0  0
  9 10  1  0  0  0
 10 28  1  0  0  0
 28 29  1  0  0  0
 29 30  1  0  0  0
 30 31  1  0  0  0
 31 32  3  0  0  0
M  END
> <minimizedAffinity>
-9.82627

$$$$
data/HSP90/cocry_dataset/1uyf_PU1_LIG.pdb


 32 34  0  0  0  0  0  0  0  0999 V2000
    4.9339   12.0818   23.7008 C   0  0  0  0  0  0  0  0  0  0  0  0
    4.3313   13.0821   24.3232 N   0  0  0  0  0  0  0  0  0  0  0  0
    5.3305   13.9741   24.6762 C   0  0  0  0  0  0  0  0  0  0  0  0
    5.3462   15.1403   25.4669 C   0  0  0  0  0  0  0  0  0  0  0  0
    4.2317   15.6901   26.0829 N   0  0  0  0  0  0  0  0  0  0  0  0
    6.5302   15.7718   25.6558 N   0  0  0  0  0  0  0  0  0  0  0  0
    7.6400   15.2443   25.1033 C   0  0  0  0  0  0  0  0  0  0  0  0
    7.7379   14.1448   24.3313 N   0  0  0  0  0  0  0  0  0  0  0  0
    6.5433   13.5540   24.1745 C   0  0  0  0  0  0  0  0  0  0  0  0
    6.2816   12.3758   23.5237 N   0  0  0  0  0  0  0  0  0  0  0  0
    8.7909   15.8819   25.3721 F   0  0  0  0  0  0  0  0  0  0  0  0
    3.3483   15.4415   25.6660 H   0  0  0  0  0  0  0  0  0  0  0  0
    4.3814   16.6468   26.3739 H   0  0  0  0  0  0  0  0  0  0  0  0
    4.2776   10.7835   23.2694 C   0  0  0  0  0  0  0  0  0  0  0  0
    1.3522   11.7783   23.0601 Cl  0  0  0  0  0  0  0  0  0  0  0  0
    1.9731   10.8650   24.4081 C   0  0  0  0  0  0  0  0  0  0  0  0
    1.1461   10.5632   25.5185 C   0  0  0  0  0  0  0  0  0  0  0  0
    1.4689    9.4546   26.3404 C   0  0  0  0  0  0  0  0  0  0  0  0
    2.6293    8.7069   26.0457 C   0  0  0  0  0  0  0  0  0  0  0  0
    3.5256    9.1573   25.0633 C   0  0  0  0  0  0  0  0  0  0  0  0
    3.2390   10.2710   24.2609 C   0  0  0  0  0  0  0  0  0  0  0  0
   -0.0070   11.2534   25.8072 O   0  0  0  0  0  0  0  0  0  0  0  0
   -1.2196   10.8240   25.1881 C   0  0  0  0  0  0  0  0  0  0  0  0
    0.7675    9.0139   27.4331 O   0  0  0  0  0  0  0  0  0  0  0  0
   -0.0068    7.8275   27.3876 C   0  0  0  0  0  0  0  0  0  0  0  0
    3.0607    7.5632   26.6800 O   0  0  0  0  0  0  0  0  0  0  0  0
    3.5537    6.5038   25.8600 C   0  0  0  0  0  0  0  0  0  0  0  0
    7.3032   11.5376   22.9244 C   0  0  0  0  0  0  0  0  0  0  0  0
    7.8527   10.4716   23.8785 C   0  0  0  0  0  0  0  0  0  0  0  0
    8.0018    9.1124   23.1904 C   0  0  0  0  0  0  0  0  0  0  0  0
    7.6146    8.0232   24.0992 C   0  0  0  0  0  0  0  0  0  0  0  0
    7.3447    7.0774   24.7963 C   0  0  0  0  0  0  0  0  0  0  0  0
 15 16  1  0  0  0
 16 17  1  0  0  0
 16 21  2  0  0  0
 17 22  1  0  0  0
 17 18  2  0  0  0
 22 23  1  0  0  0
 18 24  1  0  0  0
 18 19  1  0  0  0
 24 25  1  0  0  0
 19 26  1  0  0  0
 19 20  2  0  0  0
 26 27  1  0  0  0
 20 21  1  0  0  0
 21 14  1  0  0  0
 14  1  1  0  0  0
  1  2  2  0  0  0
  1 10  1  0  0  0
  2  3  1  0  0  0
  3  4  1  0  0  0
  3  9  2  0  0  0
  4  5  1  0  0  0
  4  6  2  0  0  0
  5 12  1  0  0  0
  5 13  1  0  0  0
  6  7  1  0  0  0
  7  8  2  0  0  0
  7 11  1  0  0  0
  8  9  1  0  0  0
  9 10  1  0  0  0
 10 28  1  0  0  0
 28 29  1  0  0  0
 29 30  1  0  0  0
 30 31  1  0  0  0
 31 32  3  0  0  0
M  END
> <minimizedAffinity>
-9.60808

$$$$
data/HSP90/cocry_dataset/1uyf_PU1_LIG.pdb


 32 34  0  0  0  0  0  0  0  0999 V2000
    4.4512   11.4631   23.5892 C   0  0  0  0  0  0  0  0  0  0  0  0
    5.7089   11.8728   23.6311 N   0  0  0  0  0  0  0  0  0  0  0  0
    5.6931   13.0999   24.2734 C   0  0  0  0  0  0  0  0  0  0  0  0
    6.6763   14.0847   24.4944 C   0  0  0  0  0  0  0  0  0  0  0  0
    7.9993   13.9824   24.0907 N   0  0  0  0  0  0  0  0  0  0  0  0
    6.3130   15.2219   25.1356 N   0  0  0  0  0  0  0  0  0  0  0  0
    5.0270   15.3715   25.5087 C   0  0  0  0  0  0  0  0  0  0  0  0
    4.0131   14.4985   25.3527 N   0  0  0  0  0  0  0  0  0  0  0  0
    4.4199   13.3915   24.7126 C   0  0  0  0  0  0  0  0  0  0  0  0
    3.6437   12.3343   24.3123 N   0  0  0  0  0  0  0  0  0  0  0  0
    4.7152   16.5418   26.0885 F   0  0  0  0  0  0  0  0  0  0  0  0
    8.3300   13.0407   23.9491 H   0  0  0  0  0  0  0  0  0  0  0  0
    8.6012   14.6448   24.5612 H   0  0  0  0  0  0  0  0  0  0  0  0
    3.9406   10.2470   22.8389 C   0  0  0  0  0  0  0  0  0  0  0  0
    1.6534    8.5694   24.0821 Cl  0  0  0  0  0  0  0  0  0  0  0  0
    3.3460    8.2479   24.3437 C   0  0  0  0  0  0  0  0  0  0  0  0
    3.7578    7.1932   25.1957 C   0  0  0  0  0  0  0  0  0  0  0  0
    5.0483    6.6320   25.0277 C   0  0  0  0  0  0  0  0  0  0  0  0
    5.8979    7.1695   24.0369 C   0  0  0  0  0  0  0  0  0  0  0  0
    5.5292    8.3390   23.3530 C   0  0  0  0  0  0  0  0  0  0  0  0
    4.2686    8.9276   23.5289 C   0  0  0  0  0  0  0  0  0  0  0  0
    2.9386    6.6292   26.1444 O   0  0  0  0  0  0  0  0  0  0  0  0
    2.7331    7.3422   27.3640 C   0  0  0  0  0  0  0  0  0  0  0  0
    5.5918    5.5987   25.7469 O   0  0  0  0  0  0  0  0  0  0  0  0
    6.3696    5.8328   26.9085 C   0  0  0  0  0  0  0  0  0  0  0  0
    7.1468    6.7119   23.6797 O   0  0  0  0  0  0  0  0  0  0  0  0
    8.2543    7.5847   23.9020 C   0  0  0  0  0  0  0  0  0  0  0  0
    2.2046   12.2744   24.4875 C   0  0  0  0  0  0  0  0  0  0  0  0
    1.4454   13.3033   23.6428 C   0  0  0  0  0  0  0  0  0  0  0  0
    0.3986   12.6417   22.7429 C   0  0  0  0  0  0  0  0  0  0  0  0
   -0.6286   11.9654   23.5490 C   0  0  0  0  0  0  0  0  0  0  0  0
   -1.5102   11.3902   24.1366 C   0  0  0  0  0  0  0  0  0  0  0  0
 15 16  1  0  0  0
 16 17  1  0  0  0
 16 21  2  0  0  0
 17 22  1  0  0  0
 17 18  2  0  0  0
 22 23  1  0  0  0
 18 24  1  0  0  0
 18 19  1  0  0  0
 24 25  1  0  0  0
 19 26  1  0  0  0
 19 20  2  0  0  0
 26 27  1  0  0  0
 20 21  1  0  0  0
 21 14  1  0  0  0
 14  1  1  0  0  0
  1  2  2  0  0  0
  1 10  1  0  0  0
  2  3  1  0  0  0
  3  4  1  0  0  0
  3  9  2  0  0  0
  4  5  1  0  0  0
  4  6  2  0  0  0
  5 12  1  0  0  0
  5 13  1  0  0  0
  6  7  1  0  0  0
  7  8  2  0  0  0
  7 11  1  0  0  0
  8  9  1  0  0  0
  9 10  1  0  0  0
 10 28  1  0  0  0
 28 29  1  0  0  0
 29 30  1  0  0  0
 30 31  1  0  0  0
 31 32  3  0  0  0
M  END
> <minimizedAffinity>
-8.83582

$$$$
