# created with PyMOL 2.5.0
@<TRIPOS>MOLECULE
data/HSP90/cocry_dataset/1uyf_PU1_LIG.pdb
51 53 1                 
SMALL
USER_CHARGES
@<TRIPOS>ATOM
1	 H19	0.895	11.901	22.116	 H	1	UNK0	0.000	
2	 H03	4.439	10.235	21.869	 H	1	UNK0	0.000	
3	 H20	-0.076	13.404	22.125	 H	1	UNK0	0.000	
4	 H17	2.166	13.814	23.004	 H	1	UNK0	0.000	
5	 H04	2.858	10.328	22.744	 H	1	UNK0	0.000	
6	 H18	0.945	14.007	24.308	 H	1	UNK0	0.000	
7	 H02	8.317	13.155	23.605	 H	1	UNK0	0.000	
8	 H01	8.645	14.735	24.282	 H	1	UNK0	0.000	
9	 H08	2.983	8.393	27.218	 H	1	UNK0	0.000	
10	 H21	-2.307	10.870	24.668	 H	1	UNK0	0.000	
11	 H06	1.689	7.256	27.663	 H	1	UNK0	0.000	
12	 H05	6.241	8.801	22.668	 H	1	UNK0	0.000	
13	 H16	1.863	11.278	24.208	 H	1	UNK0	0.000	
14	 H07	3.370	6.922	28.143	 H	1	UNK0	0.000	
15	 H11	6.662	4.880	27.349	 H	1	UNK0	0.000	
16	 H10	5.784	6.403	27.630	 H	1	UNK0	0.000	
17	 H09	7.263	6.397	26.639	 H	1	UNK0	0.000	
18	 H12	9.089	7.280	23.270	 H	1	UNK0	0.000	
19	 H15	1.998	12.502	25.533	 H	1	UNK0	0.000	
20	 H14	8.554	7.533	24.949	 H	1	UNK0	0.000	
21	 H13	7.967	8.607	23.656	 H	1	UNK0	0.000	
22	   C	4.451	11.463	23.589	C.2	1	UNK0	0.000	
23	   N	5.709	11.873	23.631	N.2	1	UNK0	0.000	
24	   C	5.693	13.100	24.273	C.2	1	UNK0	0.000	
25	   C	6.676	14.085	24.494	C.2	1	UNK0	0.000	
26	   N	7.999	13.982	24.091	N.pl3	1	UNK0	0.000	
27	   N	6.313	15.222	25.136	N.2	1	UNK0	0.000	
28	   C	5.027	15.372	25.509	C.2	1	UNK0	0.000	
29	   N	4.013	14.498	25.353	N.2	1	UNK0	0.000	
30	   C	4.420	13.392	24.713	C.2	1	UNK0	0.000	
31	   N	3.644	12.334	24.312	N.pl3	1	UNK0	0.000	
32	   F	4.715	16.542	26.088	 F	1	UNK0	0.000	
33	   C	3.941	10.247	22.839	C.3	1	UNK0	0.000	
34	  Cl	1.653	8.569	24.082	Cl	1	UNK0	0.000	
35	   C	3.346	8.248	24.344	C.2	1	UNK0	0.000	
36	   C	3.758	7.193	25.196	C.2	1	UNK0	0.000	
37	   C	5.048	6.632	25.028	C.2	1	UNK0	0.000	
38	   C	5.898	7.169	24.037	C.2	1	UNK0	0.000	
39	   C	5.529	8.339	23.353	C.2	1	UNK0	0.000	
40	   C	4.269	8.928	23.529	C.2	1	UNK0	0.000	
41	   O	2.939	6.629	26.144	O.3	1	UNK0	0.000	
42	   C	2.733	7.342	27.364	C.3	1	UNK0	0.000	
43	   O	5.592	5.599	25.747	O.3	1	UNK0	0.000	
44	   C	6.370	5.833	26.909	C.3	1	UNK0	0.000	
45	   O	7.147	6.712	23.680	O.3	1	UNK0	0.000	
46	   C	8.254	7.585	23.902	C.3	1	UNK0	0.000	
47	   C	2.205	12.274	24.487	C.3	1	UNK0	0.000	
48	   C	1.445	13.303	23.643	C.3	1	UNK0	0.000	
49	   C	0.399	12.642	22.743	C.3	1	UNK0	0.000	
50	   C	-0.629	11.965	23.549	C.1	1	UNK0	0.000	
51	   C	-1.510	11.390	24.137	C.1	1	UNK0	0.000	
@<TRIPOS>BOND
1 22 23 2
2 22 31 1
3 23 24 1
4 24 25 1
5 24 30 2
6 25 26 1
7 25 27 2
8 7 26 1
9 8 26 1
10 27 28 1
11 28 29 2
12 28 32 1
13 29 30 1
14 30 31 1
15 31 47 1
16 2 33 1
17 5 33 1
18 22 33 1
19 34 35 1
20 35 36 1
21 35 40 2
22 36 37 2
23 36 41 1
24 37 38 1
25 37 43 1
26 38 39 2
27 38 45 1
28 12 39 1
29 39 40 1
30 33 40 1
31 41 42 1
32 9 42 1
33 11 42 1
34 14 42 1
35 43 44 1
36 15 44 1
37 16 44 1
38 17 44 1
39 45 46 1
40 18 46 1
41 20 46 1
42 21 46 1
43 13 47 1
44 19 47 1
45 47 48 1
46 4 48 1
47 6 48 1
48 48 49 1
49 1 49 1
50 3 49 1
51 49 50 1
52 50 51 3
53 10 51 1
@<TRIPOS>SUBSTRUCTURE
1	UNK0	1	GROUP	1 ****	UNK
