# created with PyMOL 2.5.0
@<TRIPOS>MOLECULE
data/HSP90/cocry_dataset/1uyf_PU1_LIG.pdb
51 53 1                 
SMALL
USER_CHARGES
@<TRIPOS>ATOM
1	   C	5.129	11.953	23.759	C.2	1	UNK0	0.000	
2	   N	4.587	12.997	24.367	N.2	1	UNK0	0.000	
3	   C	5.620	13.892	24.589	C.2	1	UNK0	0.000	
4	   C	5.710	15.101	25.307	C.2	1	UNK0	0.000	
5	   N	4.652	15.702	25.974	N.pl3	1	UNK0	0.000	
6	   N	6.911	15.724	25.367	N.2	1	UNK0	0.000	
7	   C	7.969	15.149	24.762	C.2	1	UNK0	0.000	
8	   N	7.995	14.006	24.050	N.2	1	UNK0	0.000	
9	   C	6.786	13.425	24.021	C.2	1	UNK0	0.000	
10	   N	6.461	12.216	23.462	N.pl3	1	UNK0	0.000	
11	   F	9.144	15.784	24.904	 F	1	UNK0	0.000	
12	   C	4.427	10.642	23.456	C.3	1	UNK0	0.000	
13	  Cl	3.380	8.797	25.712	Cl	1	UNK0	0.000	
14	   C	2.346	9.671	24.614	C.2	1	UNK0	0.000	
15	   C	0.937	9.537	24.687	C.2	1	UNK0	0.000	
16	   C	0.117	10.569	24.166	C.2	1	UNK0	0.000	
17	   C	0.733	11.683	23.556	C.2	1	UNK0	0.000	
18	   C	2.118	11.682	23.326	C.2	1	UNK0	0.000	
19	   C	2.943	10.655	23.806	C.2	1	UNK0	0.000	
20	   O	0.313	8.480	25.305	O.3	1	UNK0	0.000	
21	   C	0.408	7.193	24.695	C.3	1	UNK0	0.000	
22	   O	-1.254	10.609	24.176	O.3	1	UNK0	0.000	
23	   C	-1.975	10.998	25.332	C.3	1	UNK0	0.000	
24	   O	0.109	12.808	23.064	O.3	1	UNK0	0.000	
25	   C	-0.042	12.908	21.648	C.3	1	UNK0	0.000	
26	   C	7.424	11.330	22.835	C.3	1	UNK0	0.000	
27	   C	8.078	10.350	23.816	C.3	1	UNK0	0.000	
28	   C	8.202	8.945	23.222	C.3	1	UNK0	0.000	
29	   C	7.613	7.944	24.125	C.1	1	UNK0	0.000	
30	   C	7.188	7.068	24.835	C.1	1	UNK0	0.000	
31	 H01	4.797	16.569	26.472	 H	1	UNK0	0.000	
32	 H02	3.738	15.273	25.962	 H	1	UNK0	0.000	
33	 H03	4.502	10.479	22.381	 H	1	UNK0	0.000	
34	 H04	4.911	9.850	24.027	 H	1	UNK0	0.000	
35	 H05	2.563	12.500	22.760	 H	1	UNK0	0.000	
36	 H06	1.432	6.829	24.774	 H	1	UNK0	0.000	
37	 H07	-0.264	6.500	25.201	 H	1	UNK0	0.000	
38	 H08	0.130	7.268	23.643	 H	1	UNK0	0.000	
39	 H09	-2.970	10.553	25.306	 H	1	UNK0	0.000	
40	 H10	-1.449	10.655	26.223	 H	1	UNK0	0.000	
41	 H11	-2.064	12.084	25.358	 H	1	UNK0	0.000	
42	 H12	-0.662	13.773	21.410	 H	1	UNK0	0.000	
43	 H13	0.937	13.026	21.185	 H	1	UNK0	0.000	
44	 H14	-0.519	12.005	21.268	 H	1	UNK0	0.000	
45	 H15	8.219	11.954	22.427	 H	1	UNK0	0.000	
46	 H16	6.914	10.756	22.062	 H	1	UNK0	0.000	
47	 H17	7.447	10.288	24.703	 H	1	UNK0	0.000	
48	 H18	9.073	10.716	24.069	 H	1	UNK0	0.000	
49	 H19	9.259	8.715	23.087	 H	1	UNK0	0.000	
50	 H20	7.682	8.914	22.265	 H	1	UNK0	0.000	
51	 H21	6.803	6.275	25.476	 H	1	UNK0	0.000	
@<TRIPOS>BOND
1 13 14 1
2 14 15 1
3 14 19 2
4 15 20 1
5 15 16 2
6 20 21 1
7 16 22 1
8 16 17 1
9 22 23 1
10 17 24 1
11 17 18 2
12 24 25 1
13 18 19 1
14 12 19 1
15 1 12 1
16 1 2 2
17 1 10 1
18 2 3 1
19 3 4 1
20 3 9 2
21 4 5 1
22 4 6 2
23 6 7 1
24 7 8 2
25 7 11 1
26 8 9 1
27 9 10 1
28 10 26 1
29 26 27 1
30 27 28 1
31 28 29 1
32 29 30 3
33 5 31 1
34 5 32 1
35 12 33 1
36 12 34 1
37 18 35 1
38 21 36 1
39 21 37 1
40 21 38 1
41 23 39 1
42 23 40 1
43 23 41 1
44 25 42 1
45 25 43 1
46 25 44 1
47 26 45 1
48 26 46 1
49 27 47 1
50 27 48 1
51 28 49 1
52 28 50 1
53 30 51 1
@<TRIPOS>SUBSTRUCTURE
1	UNK0	1	GROUP	1 ****	UNK
